/*---------------------------------------------------------------------------*\
| =========                 |                                                 |
| \\      /  F ield         | OpenFOAM: The Open Source CFD Toolbox           |
|  \\    /   O peration     | Version:  2406                                  |
|   \\  /    A nd           | Website:  www.openfoam.com                      |
|    \\/     M anipulation  |                                                 |
\*---------------------------------------------------------------------------*/
Build  : _be01ca78-20240625 OPENFOAM=2406 version=2406
Arch   : "LSB;label=32;scalar=64"
Exec   : simpleFoam -parallel
Date   : Sep 05 2024
Time   : 10:24:17
Host   : CSIT-LT1087
PID    : 414989
I/O    : uncollated
Case   : /home/claudio/Projects/community-training/fsi-workflow/04_fluidSimulation/solution_water_Re20000/Fluid
nProcs : 8
Hosts  :
(
    (CSIT-LT1087 8)
)
Pstream initialized with:
    floatTransfer      : false
    maxCommsSize       : 0
    nProcsSimpleSum    : 0
    nonBlockingExchange: 0 (tuning: 0)
    exchange algorithm : 0
    commsType          : nonBlocking
    polling iterations : 0
trapFpe: Floating point exception trapping enabled (FOAM_SIGFPE).
fileModificationChecking : Monitoring run-time modified files using timeStampMaster (fileModificationSkew 5, maxFileModificationPolls 20)
allowSystemOperations : Allowing user-supplied system call operations

// * * * * * * * * * * * * * * * * * * * * * * * * * * * * * * * * * * * * * //
Create time

Create mesh for time = 0


SIMPLE: convergence criteria
    field p	 tolerance 4e-05
    field U	 tolerance 1e-05
    field "(k|epsilon|omega|f|v2)"	 tolerance 0.0001

Reading field p

Reading field U

Reading/calculating face flux field phi

Selecting incompressible transport model Newtonian
Selecting turbulence model type laminar
Selecting laminar stress model Stokes
No MRF models present

No finite volume options present

Starting time loop

forces forces_object:
    rho: rhoInf
    Freestream density (rhoInf) set to 1000
    Not including porosity effects

forceCoeffs forceCoeffs_object:
    rho: rhoInf
    Freestream density (rhoInf) set to 1000
    Not including porosity effects
    magUInf: 0.2
    lRef   : 0.1
    Aref   : 0.03
    rhoInf : 1000
    Selecting all coefficients
    - Drag force: Cd
    - Drag force front: Cd(f)
    - Drag force rear: Cd(r)
    - Lift force: Cl
    - Lift force front: Cl(f)
    - Lift force rear: Cl(r)
    - Pitch moment: CmPitch
    - Roll moment: CmRoll
    - Yaw moment: CmYaw
    - Side force: Cs
    - Side force front: Cs(f)
    - Side force rear: Cs(r)


Time = 1

DILUPBiCGStab:  Solving for Ux, Initial residual = 0.9999999998, Final residual = 1.280795481e-09, No Iterations 8
DILUPBiCGStab:  Solving for Uy, Initial residual = 1, Final residual = 4.630112151e-09, No Iterations 7
DILUPBiCGStab:  Solving for Uz, Initial residual = 1, Final residual = 2.913896555e-09, No Iterations 7
GAMG:  Solving for p, Initial residual = 1, Final residual = 8.062135804e-07, No Iterations 13
GAMG:  Solving for p, Initial residual = 0.120864891, Final residual = 9.364645265e-07, No Iterations 8
GAMG:  Solving for p, Initial residual = 0.01347088132, Final residual = 4.580924693e-07, No Iterations 7
time step continuity errors : sum local = 2.547822953e-08, global = 5.156952123e-10, cumulative = 5.156952123e-10
ExecutionTime = 1.65 s  ClockTime = 2 s

forces forces_object write:
    Sum of forces
        Total    : (0.4136796685 0.06496973546 -0.0002797226773)
        Pressure : (0.3552918067 0.06513790201 -0.0002757306205)
        Viscous  : (0.05838786182 -0.0001681665546 -3.992056861e-06)
    Sum of moments
        Total    : (-0.009364675602 0.06145018033 0.01250307644)
        Pressure : (-0.009389975491 0.05257232706 0.01258581498)
        Viscous  : (2.529988906e-05 0.008877853265 -8.273854312e-05)
    writing force and moment files.

forceCoeffs forceCoeffs_object write:
    Coefficient	Total	Pressure	Viscous	Internal
    Cd:	0.6894661142	0.5921530111	0.09731310303	0
    Cd(f):	0.1886551304	0.1395769141	0.04907821633	0
    Cd(r):	0.5008109838	0.4525760971	0.04823488669	0
    Cl:	0.1082828924	0.10856317	-0.000280277591	0
    Cl(f):	-0.1542431611	-0.1554819981	0.001238836923	0
    Cl(r):	0.2625260536	0.2640451681	-0.001519114514	0
    CmPitch:	-0.2083846074	-0.2097635831	0.001378975719	0
    CmRoll:	-0.1560779267	-0.1564995915	0.0004216648177	0
    CmYaw:	1.024169672	0.876205451	0.1479642211	0
    Cs:	0.0004662044622	0.0004595510341	6.653428101e-06	0
    Cs(f):	1.024402774	0.8764352266	0.1479675478	0
    Cs(r):	-1.02393657	-0.8759756755	-0.1479608944	0

    writing force and moment coefficient files.

Time = 2

DILUPBiCGStab:  Solving for Ux, Initial residual = 0.138418659, Final residual = 2.415584333e-10, No Iterations 8
DILUPBiCGStab:  Solving for Uy, Initial residual = 0.5741131326, Final residual = 2.387256406e-09, No Iterations 7
DILUPBiCGStab:  Solving for Uz, Initial residual = 0.5614271356, Final residual = 5.180914718e-09, No Iterations 7
GAMG:  Solving for p, Initial residual = 0.5199755473, Final residual = 3.839932072e-07, No Iterations 12
GAMG:  Solving for p, Initial residual = 0.03844745023, Final residual = 3.676562037e-07, No Iterations 8
GAMG:  Solving for p, Initial residual = 0.005133646652, Final residual = 5.777540496e-07, No Iterations 6
time step continuity errors : sum local = 8.795870863e-08, global = -3.520162618e-10, cumulative = 1.636789505e-10
ExecutionTime = 2.85 s  ClockTime = 3 s

forces forces_object write:
    Sum of forces
        Total    : (0.09032733693 0.1238670899 0.004833153638)
        Pressure : (0.04419110329 0.1234867558 0.004869031103)
        Viscous  : (0.04613623364 0.0003803341422 -3.587746486e-05)
    Sum of moments
        Total    : (-0.01775370202 0.01361169961 0.000863984352)
        Pressure : (-0.01769431032 0.006580724681 0.001032828633)
        Viscous  : (-5.939169859e-05 0.007030974929 -0.0001688442809)
    writing force and moment files.

forceCoeffs forceCoeffs_object write:
    Coefficient	Total	Pressure	Viscous	Internal
    Cd:	0.1505455615	0.07365183882	0.07689372273	0
    Cd(f):	-0.2206222529	-0.2580792526	0.03745699972	0
    Cd(r):	0.3711678145	0.3317310915	0.03943672301	0
    Cl:	0.2064451499	0.2058112597	0.0006338902371	0
    Cl(f):	0.08882283575	0.08569181928	0.003131016467	0
    Cl(r):	0.1176223141	0.1201194404	-0.00249712623	0
    CmPitch:	-0.0143997392	-0.01721381055	0.002814071348	0
    CmRoll:	-0.2958950337	-0.294905172	-0.0009898616432	0
    CmYaw:	0.2268616602	0.1096787447	0.1171829155	0
    Cs:	-0.008055256064	-0.008115051839	5.979577476e-05	0
    Cs(f):	0.2228340321	0.1056212188	0.1172128134	0
    Cs(r):	-0.2308892882	-0.1137362706	-0.1171530176	0

    writing force and moment coefficient files.

Time = 3

DILUPBiCGStab:  Solving for Ux, Initial residual = 0.03568369209, Final residual = 3.261583777e-09, No Iterations 6
DILUPBiCGStab:  Solving for Uy, Initial residual = 0.1820341214, Final residual = 5.285097524e-09, No Iterations 7
DILUPBiCGStab:  Solving for Uz, Initial residual = 0.2274133046, Final residual = 3.327342511e-09, No Iterations 7
GAMG:  Solving for p, Initial residual = 0.1624916673, Final residual = 7.081745184e-07, No Iterations 10
GAMG:  Solving for p, Initial residual = 0.07275193627, Final residual = 9.493492493e-07, No Iterations 8
GAMG:  Solving for p, Initial residual = 0.009934647296, Final residual = 8.03731908e-07, No Iterations 6
time step continuity errors : sum local = 4.78493825e-08, global = 4.732773894e-10, cumulative = 6.369563399e-10
ExecutionTime = 4.06 s  ClockTime = 4 s

forces forces_object write:
    Sum of forces
        Total    : (-0.0844906751 0.09561854147 0.004330071184)
        Pressure : (-0.1225084052 0.09512733588 0.004392570957)
        Viscous  : (0.03801773012 0.0004912055847 -6.249977271e-05)
    Sum of moments
        Total    : (-0.01352047677 -0.01226506953 -0.004333685985)
        Pressure : (-0.01344339605 -0.018062454 -0.004210296608)
        Viscous  : (-7.708072041e-05 0.005797384473 -0.0001233893775)
    writing force and moment files.

forceCoeffs forceCoeffs_object write:
    Coefficient	Total	Pressure	Viscous	Internal
    Cd:	-0.1408177918	-0.2041806754	0.06336288354	0
    Cd(f):	-0.2957501754	-0.3261469385	0.0303967631	0
    Cd(r):	0.1549323835	0.1219662631	0.03296612044	0
    Cl:	0.1593642358	0.1585455598	0.0008186759745	0
    Cl(f):	0.1519102176	0.14944439	0.002465827612	0
    Cl(r):	0.007454018133	0.00910116977	-0.001647151637	0
    CmPitch:	0.07222809976	0.07017161013	0.002056489624	0
    CmRoll:	-0.2253412794	-0.2240566008	-0.001284678674	0
    CmYaw:	-0.2044178255	-0.3010409001	0.09662307455	0
    Cs:	-0.007216785307	-0.007320951595	0.0001041662879	0
    Cs(f):	-0.2080262182	-0.3047013759	0.09667515769	0
    Cs(r):	0.2008094329	0.2973804243	-0.09657099141	0

    writing force and moment coefficient files.

Time = 4

DILUPBiCGStab:  Solving for Ux, Initial residual = 0.03535946637, Final residual = 3.56069443e-09, No Iterations 6
DILUPBiCGStab:  Solving for Uy, Initial residual = 0.2790233473, Final residual = 3.372249366e-09, No Iterations 7
DILUPBiCGStab:  Solving for Uz, Initial residual = 0.198371469, Final residual = 5.620354148e-09, No Iterations 6
GAMG:  Solving for p, Initial residual = 0.2557027755, Final residual = 4.442987803e-07, No Iterations 11
GAMG:  Solving for p, Initial residual = 0.04880369775, Final residual = 3.750601547e-07, No Iterations 8
GAMG:  Solving for p, Initial residual = 0.005785346124, Final residual = 7.310300214e-07, No Iterations 6
time step continuity errors : sum local = 5.736016958e-08, global = -1.359783287e-09, cumulative = -7.228269476e-10
ExecutionTime = 5.28 s  ClockTime = 5 s

forces forces_object write:
    Sum of forces
        Total    : (0.004325319003 0.0373132564 0.0004162508127)
        Pressure : (-0.0294618845 0.03721498915 0.0004731413456)
        Viscous  : (0.0337872035 9.826725478e-05 -5.689053297e-05)
    Sum of moments
        Total    : (-0.005024815217 0.0008576642432 0.0006548278214)
        Pressure : (-0.005006308671 -0.00429013147 0.0007123030013)
        Viscous  : (-1.850654588e-05 0.005147795713 -5.747517986e-05)
    writing force and moment files.

forceCoeffs forceCoeffs_object write:
    Coefficient	Total	Pressure	Viscous	Internal
    Cd:	0.007208865005	-0.04910314083	0.05631200584	0
    Cd(f):	-0.08014248778	-0.1079900483	0.02784756049	0
    Cd(r):	0.08735135279	0.05888690744	0.02846444535	0
    Cl:	0.06218876067	0.06202498191	0.000163778758	0
    Cl(f):	0.02018058331	0.01914077427	0.001039809043	0
    Cl(r):	0.04200817736	0.04288420765	-0.0008760302854	0
    CmPitch:	-0.01091379702	-0.01187171669	0.0009579196643	0
    CmRoll:	-0.08374692029	-0.08343847785	-0.0003084424313	0
    CmYaw:	0.01429440405	-0.07150219117	0.08579659522	0
    Cs:	-0.0006937513544	-0.0007885689094	9.481755496e-05	0
    Cs(f):	0.01394752838	-0.07189647562	0.085844004	0
    Cs(r):	-0.01464127973	0.07110790671	-0.08574918644	0

    writing force and moment coefficient files.

Time = 5

DILUPBiCGStab:  Solving for Ux, Initial residual = 0.02432253706, Final residual = 2.606097164e-09, No Iterations 6
DILUPBiCGStab:  Solving for Uy, Initial residual = 0.2181196971, Final residual = 3.107325226e-09, No Iterations 7
DILUPBiCGStab:  Solving for Uz, Initial residual = 0.1894467647, Final residual = 2.011194764e-09, No Iterations 7
GAMG:  Solving for p, Initial residual = 0.6187045864, Final residual = 6.349508093e-07, No Iterations 11
GAMG:  Solving for p, Initial residual = 0.05998480241, Final residual = 5.683804851e-07, No Iterations 8
GAMG:  Solving for p, Initial residual = 0.007030895957, Final residual = 7.412695855e-07, No Iterations 6
time step continuity errors : sum local = 3.392475796e-08, global = -3.414043775e-10, cumulative = -1.064231325e-09
ExecutionTime = 6.65 s  ClockTime = 7 s

forces forces_object write:
    Sum of forces
        Total    : (0.07952981441 0.05873613858 0.0005744072905)
        Pressure : (0.04924436862 0.05870333408 0.0006058791041)
        Viscous  : (0.03028544579 3.280449969e-05 -3.147181364e-05)
    Sum of moments
        Total    : (-0.008191379355 0.01197009798 0.002658322898)
        Pressure : (-0.008182656878 0.00735568452 0.002711812945)
        Viscous  : (-8.722477442e-06 0.004614413464 -5.349004723e-05)
    writing force and moment files.

forceCoeffs forceCoeffs_object write:
    Coefficient	Total	Pressure	Viscous	Internal
    Cd:	0.1325496907	0.0820739477	0.05047574299	0
    Cd(f):	-0.07024814391	-0.09534064078	0.02509249687	0
    Cd(r):	0.2027978346	0.1774145885	0.02538324612	0
    Cl:	0.09789356429	0.09783889013	5.467416615e-05	0
    Cl(f):	0.004641400519	0.003722562649	0.0009188378703	0
    Cl(r):	0.09325216378	0.09411632748	-0.0008641637042	0
    CmPitch:	-0.04430538163	-0.04519688242	0.0008915007872	0
    CmRoll:	-0.1365229893	-0.1363776146	-0.000145374624	0
    CmYaw:	0.1995016331	0.122594742	0.07690689106	0
    Cs:	-0.0009573454841	-0.001009798507	5.245302274e-05	0
    Cs(f):	0.1990229603	0.1220898427	0.07693311757	0
    Cs(r):	-0.1999803058	-0.1230996413	-0.07688066455	0

    writing force and moment coefficient files.

Time = 6

DILUPBiCGStab:  Solving for Ux, Initial residual = 0.01937339088, Final residual = 5.814965564e-09, No Iterations 6
DILUPBiCGStab:  Solving for Uy, Initial residual = 0.2248821794, Final residual = 5.992071604e-09, No Iterations 7
DILUPBiCGStab:  Solving for Uz, Initial residual = 0.1942392485, Final residual = 8.971079034e-09, No Iterations 6
GAMG:  Solving for p, Initial residual = 0.5034538747, Final residual = 7.315216795e-07, No Iterations 11
GAMG:  Solving for p, Initial residual = 0.02645764281, Final residual = 6.865221273e-07, No Iterations 7
GAMG:  Solving for p, Initial residual = 0.003043005874, Final residual = 7.871332434e-07, No Iterations 5
time step continuity errors : sum local = 7.189918708e-08, global = -4.706045818e-10, cumulative = -1.534835907e-09
ExecutionTime = 7.84 s  ClockTime = 8 s

forces forces_object write:
    Sum of forces
        Total    : (0.05995319682 0.09579230855 0.002819409236)
        Pressure : (0.03321348548 0.0955282581 0.00285223953)
        Viscous  : (0.02673971134 0.0002640504477 -3.283029475e-05)
    Sum of moments
        Total    : (-0.0135094604 0.00902131638 0.0008973161163)
        Pressure : (-0.01346601281 0.004944073874 0.0009678372628)
        Viscous  : (-4.344758162e-05 0.004077242506 -7.05211465e-05)
    writing force and moment files.

forceCoeffs forceCoeffs_object write:
    Coefficient	Total	Pressure	Viscous	Internal
    Cd:	0.09992199471	0.05535580913	0.04456618557	0
    Cd(f):	-0.1751966759	-0.1967556423	0.02155896643	0
    Cd(r):	0.2751186706	0.2521114515	0.02300721915	0
    Cl:	0.1596538476	0.1592137635	0.0004400840794	0
    Cl(f):	0.06487165519	0.06347626071	0.001395394481	0
    Cl(r):	0.0947821924	0.0957375028	-0.0009553104019	0
    CmPitch:	-0.01495526861	-0.01613062105	0.001175352442	0
    CmRoll:	-0.2251576733	-0.2244335469	-0.0007241263603	0
    CmYaw:	0.150355273	0.08240123124	0.06795404177	0
    Cs:	-0.004699015393	-0.004753732551	5.471715791e-05	0
    Cs(f):	0.1480057653	0.08002436496	0.06798140034	0
    Cs(r):	-0.1527047807	-0.08477809751	-0.06792668319	0

    writing force and moment coefficient files.

Time = 7

DILUPBiCGStab:  Solving for Ux, Initial residual = 0.01496203439, Final residual = 5.707473145e-09, No Iterations 6
DILUPBiCGStab:  Solving for Uy, Initial residual = 0.1747136971, Final residual = 5.013232356e-09, No Iterations 7
DILUPBiCGStab:  Solving for Uz, Initial residual = 0.159427283, Final residual = 8.741098007e-10, No Iterations 7
GAMG:  Solving for p, Initial residual = 0.2631483746, Final residual = 7.644261464e-07, No Iterations 10
GAMG:  Solving for p, Initial residual = 0.03081117056, Final residual = 6.352511198e-07, No Iterations 7
GAMG:  Solving for p, Initial residual = 0.003356623806, Final residual = 8.916726776e-07, No Iterations 5
time step continuity errors : sum local = 5.464013699e-08, global = 1.88566876e-09, cumulative = 3.508328527e-10
ExecutionTime = 9.1 s  ClockTime = 9 s

forces forces_object write:
    Sum of forces
        Total    : (0.02755499852 0.08922146615 0.002880927363)
        Pressure : (0.003901005071 0.08887717996 0.002933804857)
        Viscous  : (0.02365399345 0.0003442861914 -5.287749404e-05)
    Sum of moments
        Total    : (-0.01240751414 0.004190879291 0.0002321661894)
        Pressure : (-0.01235195506 0.0005820765406 0.0002985748705)
        Viscous  : (-5.555907398e-05 0.00360880275 -6.640868114e-05)
    writing force and moment files.

forceCoeffs forceCoeffs_object write:
    Coefficient	Total	Pressure	Viscous	Internal
    Cd:	0.04592499753	0.006501675119	0.03942332241	0
    Cd(f):	-0.1838294035	-0.2026150802	0.01878567664	0
    Cd(r):	0.2297544011	0.2091167553	0.02063764577	0
    Cl:	0.1487024436	0.1481286333	0.000573810319	0
    Cl(f):	0.0704817853	0.06908806879	0.001393716512	0
    Cl(r):	0.07822065828	0.07904056448	-0.0008199061928	0
    CmPitch:	-0.00386943649	-0.004976247842	0.001106811352	0
    CmRoll:	-0.2067919023	-0.2058659177	-0.0009259845663	0
    CmYaw:	0.06984798818	0.009701275677	0.0601467125	0
    Cs:	-0.004801545605	-0.004889674761	8.812915674e-05	0
    Cs(f):	0.06744721538	0.007256438296	0.06019077708	0
    Cs(r):	-0.07224876098	-0.01214611306	-0.06010264793	0

    writing force and moment coefficient files.

Time = 8

DILUPBiCGStab:  Solving for Ux, Initial residual = 0.01096390143, Final residual = 4.586145591e-09, No Iterations 6
DILUPBiCGStab:  Solving for Uy, Initial residual = 0.1580789642, Final residual = 3.519355511e-09, No Iterations 7
DILUPBiCGStab:  Solving for Uz, Initial residual = 0.1073685995, Final residual = 2.917663908e-09, No Iterations 6
GAMG:  Solving for p, Initial residual = 0.2439450239, Final residual = 7.855438139e-07, No Iterations 10
GAMG:  Solving for p, Initial residual = 0.04365543372, Final residual = 3.537233193e-07, No Iterations 8
GAMG:  Solving for p, Initial residual = 0.00576568851, Final residual = 4.798665639e-07, No Iterations 6
time step continuity errors : sum local = 1.850870996e-08, global = 3.499554676e-10, cumulative = 7.007883203e-10
ExecutionTime = 10.38 s  ClockTime = 10 s

forces forces_object write:
    Sum of forces
        Total    : (0.0256933946 0.07943963652 0.001918649005)
        Pressure : (0.00432536356 0.079157531 0.001975763898)
        Viscous  : (0.02136803104 0.0002821055276 -5.711489287e-05)
    Sum of moments
        Total    : (-0.01090193097 0.003934478814 0.0008683067708)
        Pressure : (-0.01085553377 0.0006728833473 0.0009217336801)
        Viscous  : (-4.63972058e-05 0.003261595466 -5.342690937e-05)
    writing force and moment files.

forceCoeffs forceCoeffs_object write:
    Coefficient	Total	Pressure	Viscous	Internal
    Cd:	0.04282232433	0.007208939267	0.03561338506	0
    Cd(f):	-0.1602876874	-0.1773210931	0.01703340577	0
    Cd(r):	0.2031100117	0.1845300324	0.0185799793	0
    Cl:	0.1323993942	0.1319292183	0.0004701758793	0
    Cl(f):	0.05172791759	0.05060238116	0.001125536429	0
    Cl(r):	0.08067147662	0.08132683717	-0.0006553605499	0
    CmPitch:	-0.01447177951	-0.015362228	0.0008904484896	0
    CmRoll:	-0.1816988495	-0.1809255628	-0.0007732867633	0
    CmYaw:	0.0655746469	0.01121472246	0.05435992444	0
    Cs:	-0.003197748342	-0.00329293983	9.519148812e-05	0
    Cs(f):	0.06397577273	0.00956825254	0.05440752018	0
    Cs(r):	-0.06717352107	-0.01286119237	-0.0543123287	0

    writing force and moment coefficient files.

Time = 9

DILUPBiCGStab:  Solving for Ux, Initial residual = 0.008425377112, Final residual = 3.687123551e-09, No Iterations 6
DILUPBiCGStab:  Solving for Uy, Initial residual = 0.1462582784, Final residual = 2.623824645e-09, No Iterations 7
DILUPBiCGStab:  Solving for Uz, Initial residual = 0.08838530555, Final residual = 3.216850147e-09, No Iterations 6
GAMG:  Solving for p, Initial residual = 0.2860811014, Final residual = 4.214320817e-07, No Iterations 11
GAMG:  Solving for p, Initial residual = 0.02833471586, Final residual = 7.107948051e-07, No Iterations 7
GAMG:  Solving for p, Initial residual = 0.004190011495, Final residual = 3.683363447e-07, No Iterations 6
time step continuity errors : sum local = 1.782979486e-08, global = -2.342869116e-10, cumulative = 4.665014087e-10
ExecutionTime = 11.64 s  ClockTime = 12 s

forces forces_object write:
    Sum of forces
        Total    : (0.03073196102 0.08827345293 0.002014500388)
        Pressure : (0.01104837562 0.08799968366 0.002064404167)
        Viscous  : (0.0196835854 0.0002737692705 -4.99037789e-05)
    Sum of moments
        Total    : (-0.0121914636 0.004717633499 0.000733112401)
        Pressure : (-0.01214601934 0.001710592809 0.0007817388832)
        Viscous  : (-4.544425985e-05 0.00300704069 -4.862648227e-05)
    writing force and moment files.

forceCoeffs forceCoeffs_object write:
    Coefficient	Total	Pressure	Viscous	Internal
    Cd:	0.05121993504	0.01841395937	0.03280597567	0
    Cd(f):	-0.1775810925	-0.193226676	0.0156455835	0
    Cd(r):	0.2288010275	0.2116406354	0.01716039217	0
    Cl:	0.1471224216	0.1466661394	0.0004562821174	0
    Cl(f):	0.06134267076	0.06030408833	0.00103858243	0
    Cl(r):	0.08577975079	0.08636205111	-0.0005823003125	0
    CmPitch:	-0.01221854002	-0.01302898139	0.0008104413712	0
    CmRoll:	-0.20319106	-0.2024336557	-0.0007574043309	0
    CmYaw:	0.07862722499	0.02850988015	0.05011734484	0
    Cs:	-0.003357500647	-0.003440673612	8.317296484e-05	0
    Cs(f):	0.07694847466	0.02678954334	0.05015893132	0
    Cs(r):	-0.08030597531	-0.03023021696	-0.05007575835	0

    writing force and moment coefficient files.

Time = 10

DILUPBiCGStab:  Solving for Ux, Initial residual = 0.007553349326, Final residual = 6.500948154e-09, No Iterations 5
DILUPBiCGStab:  Solving for Uy, Initial residual = 0.1235339165, Final residual = 8.065001625e-09, No Iterations 6
DILUPBiCGStab:  Solving for Uz, Initial residual = 0.08222892126, Final residual = 2.575745467e-09, No Iterations 6
GAMG:  Solving for p, Initial residual = 0.2489881759, Final residual = 7.444127223e-07, No Iterations 10
GAMG:  Solving for p, Initial residual = 0.01967054188, Final residual = 3.936782004e-07, No Iterations 7
GAMG:  Solving for p, Initial residual = 0.002782108975, Final residual = 3.21760163e-07, No Iterations 6
time step continuity errors : sum local = 1.703602222e-08, global = -5.938676333e-10, cumulative = -1.273662246e-10
ExecutionTime = 12.89 s  ClockTime = 13 s

forces forces_object write:
    Sum of forces
        Total    : (0.02761833279 0.09118178134 0.002494627016)
        Pressure : (0.009264960355 0.09084027943 0.002543725391)
        Viscous  : (0.01835337244 0.0003415019119 -4.90983757e-05)
    Sum of moments
        Total    : (-0.01260328577 0.004259039944 0.0001433923887)
        Pressure : (-0.01254742032 0.001452453584 0.0001930403046)
        Viscous  : (-5.586544984e-05 0.00280658636 -4.964791591e-05)
    writing force and moment files.

forceCoeffs forceCoeffs_object write:
    Coefficient	Total	Pressure	Viscous	Internal
    Cd:	0.04603055466	0.01544160059	0.03058895407	0
    Cd(f):	-0.1870394854	-0.2014028716	0.0143633862	0
    Cd(r):	0.2330700401	0.2168444722	0.01622556786	0
    Cl:	0.1519696356	0.1514004657	0.0005691698532	0
    Cl(f):	0.07359494464	0.07248289445	0.001112050192	0
    Cl(r):	0.07837469093	0.07891757127	-0.0005428803385	0
    CmPitch:	-0.002389873145	-0.00321733841	0.0008274652651	0
    CmRoll:	-0.2100547628	-0.2091236719	-0.0009310908307	0
    CmYaw:	0.07098399907	0.02420755973	0.04677643933	0
    Cs:	-0.004157711693	-0.004239542319	8.183062616e-05	0
    Cs(f):	0.06890514322	0.02208778857	0.04681735465	0
    Cs(r):	-0.07306285491	-0.02632733089	-0.04673552402	0

    writing force and moment coefficient files.

Time = 11

DILUPBiCGStab:  Solving for Ux, Initial residual = 0.006476731905, Final residual = 7.793203523e-09, No Iterations 5
DILUPBiCGStab:  Solving for Uy, Initial residual = 0.1051994644, Final residual = 1.998305561e-09, No Iterations 7
DILUPBiCGStab:  Solving for Uz, Initial residual = 0.06711897748, Final residual = 5.696815207e-09, No Iterations 6
GAMG:  Solving for p, Initial residual = 0.2124660159, Final residual = 9.547803773e-07, No Iterations 10
GAMG:  Solving for p, Initial residual = 0.01818352122, Final residual = 5.576234932e-07, No Iterations 7
GAMG:  Solving for p, Initial residual = 0.00283379337, Final residual = 9.745831135e-07, No Iterations 5
time step continuity errors : sum local = 4.385314733e-08, global = -8.790727808e-10, cumulative = -1.006439005e-09
ExecutionTime = 13.98 s  ClockTime = 14 s

forces forces_object write:
    Sum of forces
        Total    : (0.02496244895 0.08312876478 0.002384167064)
        Pressure : (0.007687512371 0.08274581888 0.002436936166)
        Viscous  : (0.01727493658 0.0003829458963 -5.276910251e-05)
    Sum of moments
        Total    : (-0.01141057825 0.003841251503 0.0001126584156)
        Pressure : (-0.01134843921 0.001198063938 0.000161160412)
        Viscous  : (-6.213904069e-05 0.002643187565 -4.850199643e-05)
    writing force and moment files.

forceCoeffs forceCoeffs_object write:
    Coefficient	Total	Pressure	Viscous	Internal
    Cd:	0.04160408158	0.01281252062	0.02879156096	0
    Cd(f):	-0.1693742634	-0.1827343932	0.0133601298	0
    Cd(r):	0.2109783449	0.1955469138	0.01543143116	0
    Cl:	0.1385479413	0.1379096981	0.0006382431605	0
    Cl(f):	0.06739633039	0.0662688422	0.001127488187	0
    Cl(r):	0.07115161091	0.07164085593	-0.0004892450269	0
    CmPitch:	-0.001877640259	-0.002686006867	0.0008083666072	0
    CmRoll:	-0.1901763041	-0.1891406535	-0.001035650678	0
    CmYaw:	0.06402085839	0.0199677323	0.04405312609	0
    Cs:	-0.003973611773	-0.004061560277	8.794850418e-05	0
    Cs(f):	0.0620340525	0.01793695216	0.04409710034	0
    Cs(r):	-0.06600766427	-0.02199851244	-0.04400915184	0

    writing force and moment coefficient files.

Time = 12

DILUPBiCGStab:  Solving for Ux, Initial residual = 0.004932475887, Final residual = 4.165051807e-09, No Iterations 5
DILUPBiCGStab:  Solving for Uy, Initial residual = 0.08829241678, Final residual = 8.639570001e-11, No Iterations 8
DILUPBiCGStab:  Solving for Uz, Initial residual = 0.05127456902, Final residual = 6.996485127e-09, No Iterations 6
GAMG:  Solving for p, Initial residual = 0.1850882913, Final residual = 8.641100505e-07, No Iterations 10
GAMG:  Solving for p, Initial residual = 0.01710330087, Final residual = 4.652657384e-07, No Iterations 7
GAMG:  Solving for p, Initial residual = 0.002590381263, Final residual = 7.590921242e-07, No Iterations 5
time step continuity errors : sum local = 3.17323525e-08, global = -2.485202408e-10, cumulative = -1.254959246e-09
ExecutionTime = 15.18 s  ClockTime = 15 s

forces forces_object write:
    Sum of forces
        Total    : (0.02700127031 0.08111078621 0.00213067731)
        Pressure : (0.01059224878 0.08071923909 0.002185144448)
        Viscous  : (0.01640902153 0.0003915471177 -5.44671376e-05)
    Sum of moments
        Total    : (-0.01111385902 0.004123472617 0.0004076140478)
        Pressure : (-0.01105053361 0.001611665778 0.0004529634928)
        Viscous  : (-6.332540395e-05 0.002511806838 -4.534944495e-05)
    writing force and moment files.

forceCoeffs forceCoeffs_object write:
    Coefficient	Total	Pressure	Viscous	Internal
    Cd:	0.04500211719	0.01765374797	0.02734836921	0
    Cd(f):	-0.162729925	-0.1753486862	0.01261876121	0
    Cd(r):	0.2077320422	0.1930024342	0.01472960801	0
    Cl:	0.1351846437	0.1345320651	0.0006525785294	0
    Cl(f):	0.06079875438	0.05971664103	0.001082113347	0
    Cl(r):	0.0743858893	0.07481542412	-0.0004295348177	0
    CmPitch:	-0.006793567464	-0.007549391546	0.0007558240825	0
    CmRoll:	-0.1852309836	-0.1841755602	-0.001055423399	0
    CmYaw:	0.06872454361	0.0268610963	0.04186344731	0
    Cs:	-0.003551128851	-0.003641907413	9.077856267e-05	0
    Cs(f):	0.06694897918	0.0250401426	0.04190883659	0
    Cs(r):	-0.07050010803	-0.02868205001	-0.04181805803	0

    writing force and moment coefficient files.

Time = 13

DILUPBiCGStab:  Solving for Ux, Initial residual = 0.00420675655, Final residual = 1.491715249e-09, No Iterations 6
DILUPBiCGStab:  Solving for Uy, Initial residual = 0.07506472677, Final residual = 9.805392788e-10, No Iterations 7
DILUPBiCGStab:  Solving for Uz, Initial residual = 0.04401303038, Final residual = 6.493241646e-09, No Iterations 6
GAMG:  Solving for p, Initial residual = 0.1600551508, Final residual = 5.970270373e-07, No Iterations 10
GAMG:  Solving for p, Initial residual = 0.0135899469, Final residual = 3.483277123e-07, No Iterations 7
GAMG:  Solving for p, Initial residual = 0.002371659588, Final residual = 9.532019078e-07, No Iterations 5
time step continuity errors : sum local = 3.974423358e-08, global = 3.772083114e-10, cumulative = -8.777509349e-10
ExecutionTime = 16.33 s  ClockTime = 16 s

forces forces_object write:
    Sum of forces
        Total    : (0.02726249706 0.08523888353 0.0021873511)
        Pressure : (0.01157771233 0.08484044393 0.002243934239)
        Viscous  : (0.01568478473 0.0003984395957 -5.658313895e-05)
    Sum of moments
        Total    : (-0.01170311585 0.00416589432 0.0003613945911)
        Pressure : (-0.01163870976 0.001763140418 0.0004040136582)
        Viscous  : (-6.44060927e-05 0.002402753903 -4.261906706e-05)
    writing force and moment files.

forceCoeffs forceCoeffs_object write:
    Coefficient	Total	Pressure	Viscous	Internal
    Cd:	0.0454374951	0.01929618722	0.02614130788	0
    Cd(f):	-0.1723331833	-0.1843304023	0.01199721906	0
    Cd(r):	0.2177706784	0.2036265896	0.01414408882	0
    Cl:	0.1420648059	0.1414007399	0.0006640659929	0
    Cl(f):	0.06500915976	0.06396680898	0.001042350781	0
    Cl(r):	0.07705564613	0.07743393091	-0.0003782847878	0
    CmPitch:	-0.006023243185	-0.006733560969	0.0007103177843	0
    CmRoll:	-0.1950519308	-0.1939784959	-0.001073434878	0
    CmYaw:	0.069431572	0.02938567363	0.04004589838	0
    Cs:	-0.003645585167	-0.003739890398	9.430523158e-05	0
    Cs(f):	0.06760877942	0.02751572843	0.04009305099	0
    Cs(r):	-0.07125436459	-0.03125561883	-0.03999874576	0

    writing force and moment coefficient files.

Time = 14

DILUPBiCGStab:  Solving for Ux, Initial residual = 0.003816079309, Final residual = 4.428089186e-09, No Iterations 5
DILUPBiCGStab:  Solving for Uy, Initial residual = 0.05970684145, Final residual = 4.456950644e-09, No Iterations 6
DILUPBiCGStab:  Solving for Uz, Initial residual = 0.03832743686, Final residual = 7.381825473e-09, No Iterations 5
GAMG:  Solving for p, Initial residual = 0.1427610176, Final residual = 8.578863595e-07, No Iterations 10
GAMG:  Solving for p, Initial residual = 0.01313866916, Final residual = 3.833700927e-07, No Iterations 7
GAMG:  Solving for p, Initial residual = 0.002342215042, Final residual = 7.370377584e-07, No Iterations 5
time step continuity errors : sum local = 2.987326976e-08, global = -3.710009023e-10, cumulative = -1.248751837e-09
ExecutionTime = 17.41 s  ClockTime = 17 s

forces forces_object write:
    Sum of forces
        Total    : (0.02413041231 0.08471523614 0.002310579149)
        Pressure : (0.00907090615 0.0842981726 0.002370451504)
        Viscous  : (0.01505950616 0.0004170635375 -5.987235427e-05)
    Sum of moments
        Total    : (-0.01161586465 0.003716212544 0.0001044923239)
        Pressure : (-0.01154855671 0.001407087915 0.0001455594828)
        Viscous  : (-6.730793625e-05 0.002309124628 -4.10671589e-05)
    writing force and moment files.

forceCoeffs forceCoeffs_object write:
    Coefficient	Total	Pressure	Viscous	Internal
    Cd:	0.04021735385	0.01511817692	0.02509917693	0
    Cd(f):	-0.1734890672	-0.1849168567	0.01142778953	0
    Cd(r):	0.213706421	0.2000350336	0.0136713874	0
    Cl:	0.1411920602	0.1404969543	0.0006951058958	0
    Cl(f):	0.06885449138	0.06782248579	0.001032005596	0
    Cl(r):	0.07233756885	0.07267446855	-0.0003368997005	0
    CmPitch:	-0.001741538732	-0.00242599138	0.0006844526484	0
    CmRoll:	-0.1935977441	-0.1924759452	-0.001121798937	0
    CmYaw:	0.06193687573	0.02345146526	0.03848541047	0
    Cs:	-0.003850965249	-0.003950752506	9.978725712e-05	0
    Cs(f):	0.0600113931	0.021476089	0.0385353041	0
    Cs(r):	-0.06386235835	-0.02542684151	-0.03843551684	0

    writing force and moment coefficient files.

Time = 15

DILUPBiCGStab:  Solving for Ux, Initial residual = 0.003214832068, Final residual = 5.932929516e-10, No Iterations 6
DILUPBiCGStab:  Solving for Uy, Initial residual = 0.04875494519, Final residual = 6.771589337e-09, No Iterations 6
DILUPBiCGStab:  Solving for Uz, Initial residual = 0.03188684527, Final residual = 1.326243961e-09, No Iterations 6
GAMG:  Solving for p, Initial residual = 0.1079447629, Final residual = 5.163829111e-07, No Iterations 10
GAMG:  Solving for p, Initial residual = 0.0114551665, Final residual = 9.742193595e-07, No Iterations 6
GAMG:  Solving for p, Initial residual = 0.002111229227, Final residual = 6.185362993e-07, No Iterations 5
time step continuity errors : sum local = 2.377779131e-08, global = 1.075974815e-10, cumulative = -1.141154356e-09
ExecutionTime = 18.5 s  ClockTime = 18 s

forces forces_object write:
    Sum of forces
        Total    : (0.02261509591 0.07989061015 0.002301546893)
        Pressure : (0.008079994525 0.07945590113 0.002363300668)
        Viscous  : (0.01453510138 0.0004347090171 -6.175377458e-05)
    Sum of moments
        Total    : (-0.010924302 0.003493873732 5.663790158e-05)
        Pressure : (-0.01085428637 0.001263476274 9.639055995e-05)
        Viscous  : (-7.001563613e-05 0.002230397458 -3.975265836e-05)
    writing force and moment files.

forceCoeffs forceCoeffs_object write:
    Coefficient	Total	Pressure	Viscous	Internal
    Cd:	0.03769182651	0.01346665754	0.02422516897	0
    Cd(f):	-0.1632257868	-0.174171444	0.01094565722	0
    Cd(r):	0.2009176133	0.1876381016	0.01327951175	0
    Cl:	0.1331510169	0.1324265019	0.0007245150284	0
    Cl(f):	0.06563154343	0.06460674161	0.00102480182	0
    Cl(r):	0.06751947348	0.06781976028	-0.0003002867919	0
    CmPitch:	-0.0009439650264	-0.001606509332	0.0006625443061	0
    CmRoll:	-0.1820717001	-0.1809047728	-0.001166927269	0
    CmYaw:	0.05823122887	0.0210579379	0.03717329097	0
    Cs:	-0.003835911489	-0.003938834446	0.0001029229576	0
    Cs(f):	0.05631327312	0.01908852068	0.03722475245	0
    Cs(r):	-0.06014918461	-0.02302735512	-0.03712182949	0

    writing force and moment coefficient files.

Time = 16

DILUPBiCGStab:  Solving for Ux, Initial residual = 0.002829756253, Final residual = 4.782022001e-09, No Iterations 5
DILUPBiCGStab:  Solving for Uy, Initial residual = 0.04261800836, Final residual = 1.885427385e-09, No Iterations 7
DILUPBiCGStab:  Solving for Uz, Initial residual = 0.02725492762, Final residual = 3.626798339e-09, No Iterations 6
GAMG:  Solving for p, Initial residual = 0.09833545026, Final residual = 5.946401902e-07, No Iterations 10
GAMG:  Solving for p, Initial residual = 0.009631577004, Final residual = 8.015917551e-07, No Iterations 6
GAMG:  Solving for p, Initial residual = 0.001878897271, Final residual = 6.921136963e-07, No Iterations 5
time step continuity errors : sum local = 2.699086829e-08, global = -9.403562417e-10, cumulative = -2.081510597e-09
ExecutionTime = 19.57 s  ClockTime = 19 s

forces forces_object write:
    Sum of forces
        Total    : (0.02342590555 0.07858212801 0.002279674606)
        Pressure : (0.009328836441 0.078130176 0.002342254486)
        Viscous  : (0.01409706911 0.0004519520091 -6.257988001e-05)
    Sum of moments
        Total    : (-0.01074303814 0.003608732014 0.0001253924114)
        Pressure : (-0.01067046704 0.001444295885 0.0001640924649)
        Viscous  : (-7.257109672e-05 0.002164436129 -3.870005349e-05)
    writing force and moment files.

forceCoeffs forceCoeffs_object write:
    Coefficient	Total	Pressure	Viscous	Internal
    Cd:	0.03904317592	0.01554806073	0.02349511519	0
    Cd(f):	-0.1595290477	-0.170067087	0.01053803931	0
    Cd(r):	0.1985722236	0.1856151477	0.01295707587	0
    Cl:	0.1309702133	0.13021696	0.0007532533485	0
    Cl(f):	0.06339523315	0.06237360558	0.001021627566	0
    Cl(r):	0.0675749802	0.06784335441	-0.0002683742172	0
    CmPitch:	-0.002089873523	-0.002734874415	0.0006450008915	0
    CmRoll:	-0.1790506356	-0.1778411174	-0.001209518279	0
    CmYaw:	0.06014553357	0.02407159808	0.03607393549	0
    Cs:	-0.003799457677	-0.003903757477	0.0001042998	0
    Cs(f):	0.05824580473	0.02211971934	0.03612608539	0
    Cs(r):	-0.06204526241	-0.02602347682	-0.03602178559	0

    writing force and moment coefficient files.

Time = 17

DILUPBiCGStab:  Solving for Ux, Initial residual = 0.002505305769, Final residual = 3.9250354e-10, No Iterations 6
DILUPBiCGStab:  Solving for Uy, Initial residual = 0.03469548034, Final residual = 6.612573739e-09, No Iterations 6
DILUPBiCGStab:  Solving for Uz, Initial residual = 0.02376064004, Final residual = 2.586462981e-09, No Iterations 6
GAMG:  Solving for p, Initial residual = 0.07569831706, Final residual = 5.276473146e-07, No Iterations 10
GAMG:  Solving for p, Initial residual = 0.008925710111, Final residual = 8.223426737e-07, No Iterations 6
GAMG:  Solving for p, Initial residual = 0.001668975648, Final residual = 5.33632637e-07, No Iterations 5
time step continuity errors : sum local = 2.043641752e-08, global = 3.067778537e-10, cumulative = -1.774732744e-09
ExecutionTime = 20.67 s  ClockTime = 21 s

forces forces_object write:
    Sum of forces
        Total    : (0.02365944468 0.07805247319 0.002300105546)
        Pressure : (0.009962466391 0.07758977486 0.002364329232)
        Viscous  : (0.01369697829 0.0004626983263 -6.422368539e-05)
    Sum of moments
        Total    : (-0.01067358419 0.003639880183 7.577299684e-05)
        Pressure : (-0.01059934991 0.001535356586 0.0001133925069)
        Viscous  : (-7.423428209e-05 0.002104523597 -3.761951006e-05)
    writing force and moment files.

forceCoeffs forceCoeffs_object write:
    Coefficient	Total	Pressure	Viscous	Internal
    Cd:	0.03943240781	0.01660411065	0.02282829716	0
    Cd(f):	-0.1581768659	-0.1683537764	0.01017691054	0
    Cd(r):	0.1976092737	0.1849578871	0.01265138661	0
    Cl:	0.1300874553	0.1293162914	0.0007711638771	0
    Cl(f):	0.06378084438	0.0627682706	0.001012573773	0
    Cl(r):	0.06630661094	0.06654802083	-0.0002414098958	0
    CmPitch:	-0.001262883281	-0.001889875115	0.0006269918344	0
    CmRoll:	-0.1778930698	-0.1766558318	-0.001237238035	0
    CmYaw:	0.06066466971	0.02558927643	0.03507539328	0
    Cs:	-0.003833509244	-0.003940548719	0.0001070394756	0
    Cs(f):	0.05874791509	0.02361900207	0.03512891302	0
    Cs(r):	-0.06258142434	-0.02755955079	-0.03502187354	0

    writing force and moment coefficient files.

Time = 18

DILUPBiCGStab:  Solving for Ux, Initial residual = 0.002161247934, Final residual = 1.245146599e-09, No Iterations 5
DILUPBiCGStab:  Solving for Uy, Initial residual = 0.03012965896, Final residual = 9.547828812e-09, No Iterations 6
DILUPBiCGStab:  Solving for Uz, Initial residual = 0.02042601927, Final residual = 5.847597561e-09, No Iterations 5
GAMG:  Solving for p, Initial residual = 0.0670094834, Final residual = 7.966653775e-07, No Iterations 9
GAMG:  Solving for p, Initial residual = 0.008153249742, Final residual = 8.496773413e-07, No Iterations 6
GAMG:  Solving for p, Initial residual = 0.00155466289, Final residual = 5.214092296e-07, No Iterations 5
time step continuity errors : sum local = 1.910531733e-08, global = 3.001231389e-10, cumulative = -1.474609605e-09
ExecutionTime = 21.73 s  ClockTime = 22 s

forces forces_object write:
    Sum of forces
        Total    : (0.02258255384 0.07595017503 0.002288155864)
        Pressure : (0.009256418389 0.07547602647 0.002354442868)
        Viscous  : (0.01332613545 0.0004741485658 -6.628700415e-05)
    Sum of moments
        Total    : (-0.01037139818 0.003481202394 3.401676134e-06)
        Pressure : (-0.01029545886 0.00143196963 4.006929934e-05)
        Viscous  : (-7.593931414e-05 0.002049232763 -3.666762321e-05)
    writing force and moment files.

forceCoeffs forceCoeffs_object write:
    Coefficient	Total	Pressure	Viscous	Internal
    Cd:	0.03763758973	0.01542736398	0.02221022575	0
    Cd(f):	-0.1540378414	-0.1638772991	0.009839457638	0
    Cd(r):	0.1916754311	0.179304663	0.01237076811	0
    Cl:	0.1265836251	0.1257933774	0.0007902476096	0
    Cl(f):	0.06323511792	0.06222886707	0.001006250858	0
    Cl(r):	0.06334850713	0.06356451038	-0.0002160032487	0
    CmPitch:	-5.669460223e-05	-0.0006678216557	0.0006111270535	0
    CmRoll:	-0.1728566363	-0.171590981	-0.001265655236	0
    CmYaw:	0.0580200399	0.02386616051	0.03415387939	0
    Cs:	-0.003813593107	-0.003924071447	0.0001104783403	0
    Cs(f):	0.05611324334	0.02190412478	0.03420911856	0
    Cs(r):	-0.05992683645	-0.02582819623	-0.03409864022	0

    writing force and moment coefficient files.

Time = 19

DILUPBiCGStab:  Solving for Ux, Initial residual = 0.001978840707, Final residual = 1.977082652e-09, No Iterations 5
DILUPBiCGStab:  Solving for Uy, Initial residual = 0.02536863194, Final residual = 8.942053685e-09, No Iterations 6
DILUPBiCGStab:  Solving for Uz, Initial residual = 0.01782823294, Final residual = 6.263670641e-09, No Iterations 5
GAMG:  Solving for p, Initial residual = 0.05519108143, Final residual = 4.523289812e-07, No Iterations 10
GAMG:  Solving for p, Initial residual = 0.007406107879, Final residual = 6.906752089e-07, No Iterations 6
GAMG:  Solving for p, Initial residual = 0.001429684395, Final residual = 4.456608953e-07, No Iterations 5
time step continuity errors : sum local = 1.611712043e-08, global = 7.045945684e-11, cumulative = -1.404150148e-09
ExecutionTime = 22.79 s  ClockTime = 23 s

forces forces_object write:
    Sum of forces
        Total    : (0.02191806782 0.07359739542 0.002244327736)
        Pressure : (0.008924485471 0.07311470257 0.002312147629)
        Viscous  : (0.01299358235 0.0004826928482 -6.781989348e-05)
    Sum of moments
        Total    : (-0.01004390373 0.003384295919 4.060189223e-05)
        Pressure : (-0.009966703795 0.001384599316 7.616512477e-05)
        Viscous  : (-7.719993797e-05 0.001999696602 -3.556323254e-05)
    writing force and moment files.

forceCoeffs forceCoeffs_object write:
    Coefficient	Total	Pressure	Viscous	Internal
    Cd:	0.03653011303	0.01487414245	0.02165597058	0
    Cd(f):	-0.149133339	-0.1586746587	0.009541319658	0
    Cd(r):	0.1856634521	0.1735488011	0.01211465092	0
    Cl:	0.1226623257	0.1218578376	0.0008044880804	0
    Cl(f):	0.06065446465	0.05965950006	0.0009949645825	0
    Cl(r):	0.06200786105	0.06219833756	-0.0001904765021	0
    CmPitch:	-0.0006766982039	-0.001269418746	0.0005927205423	0
    CmRoll:	-0.1673983955	-0.1661117299	-0.001286665633	0
    CmYaw:	0.05640493198	0.02307665527	0.03332827671	0
    Cs:	-0.003740546226	-0.003853579382	0.0001130331558	0
    Cs(f):	0.05453465886	0.02114986558	0.03338479328	0
    Cs(r):	-0.05827520509	-0.02500344496	-0.03327176013	0

    writing force and moment coefficient files.

Time = 20

DILUPBiCGStab:  Solving for Ux, Initial residual = 0.001813440627, Final residual = 3.46379475e-09, No Iterations 5
DILUPBiCGStab:  Solving for Uy, Initial residual = 0.02263913112, Final residual = 5.158600676e-09, No Iterations 6
DILUPBiCGStab:  Solving for Uz, Initial residual = 0.01597998537, Final residual = 9.371878051e-09, No Iterations 5
GAMG:  Solving for p, Initial residual = 0.04733283212, Final residual = 7.246338699e-07, No Iterations 9
GAMG:  Solving for p, Initial residual = 0.00666833814, Final residual = 7.70654043e-07, No Iterations 6
GAMG:  Solving for p, Initial residual = 0.001210702856, Final residual = 5.180817479e-07, No Iterations 5
time step continuity errors : sum local = 1.920723457e-08, global = -2.091942165e-10, cumulative = -1.613344364e-09
ExecutionTime = 23.87 s  ClockTime = 24 s

forces forces_object write:
    Sum of forces
        Total    : (0.02211754645 0.07353673603 0.002244024619)
        Pressure : (0.009418471343 0.07304444795 0.002313143402)
        Viscous  : (0.01269907511 0.0004922880796 -6.911878317e-05)
    Sum of moments
        Total    : (-0.01004659426 0.003413528174 0.0001036433002)
        Pressure : (-0.00996802614 0.001457609501 0.0001383579505)
        Viscous  : (-7.856812105e-05 0.001955918672 -3.471465033e-05)
    writing force and moment files.

forceCoeffs forceCoeffs_object write:
    Coefficient	Total	Pressure	Viscous	Internal
    Cd:	0.03686257742	0.01569745224	0.02116512518	0
    Cd(f):	-0.149011949	-0.1582850429	0.009273093907	0
    Cd(r):	0.1858745264	0.1739824951	0.01189203128	0
    Cl:	0.1225612267	0.1217407466	0.0008204801327	0
    Cl(f):	0.05955322502	0.05856440745	0.0009888175719	0
    Cl(r):	0.0630080017	0.06317633913	-0.0001683374392	0
    CmPitch:	-0.001727388337	-0.002305965842	0.0005785775056	0
    CmRoll:	-0.1674432377	-0.166133769	-0.001309468684	0
    CmYaw:	0.05689213623	0.02429349169	0.03259864454	0
    Cs:	-0.003740041032	-0.003855239004	0.0001151979719	0
    Cs(f):	0.05502211571	0.02236587219	0.03265624353	0
    Cs(r):	-0.05876215674	-0.02622111119	-0.03254104556	0

    writing force and moment coefficient files.

Time = 21

DILUPBiCGStab:  Solving for Ux, Initial residual = 0.001631347976, Final residual = 1.837066901e-10, No Iterations 6
DILUPBiCGStab:  Solving for Uy, Initial residual = 0.01925594131, Final residual = 4.692065059e-09, No Iterations 6
DILUPBiCGStab:  Solving for Uz, Initial residual = 0.01508827662, Final residual = 6.468758827e-09, No Iterations 5
GAMG:  Solving for p, Initial residual = 0.04208866513, Final residual = 6.87580605e-07, No Iterations 9
GAMG:  Solving for p, Initial residual = 0.005984662052, Final residual = 6.018061846e-07, No Iterations 6
GAMG:  Solving for p, Initial residual = 0.00117894361, Final residual = 4.444590994e-07, No Iterations 5
time step continuity errors : sum local = 1.664583668e-08, global = -2.266907794e-10, cumulative = -1.840035144e-09
ExecutionTime = 24.92 s  ClockTime = 25 s

forces forces_object write:
    Sum of forces
        Total    : (0.02197850883 0.07275224453 0.002278232873)
        Pressure : (0.009550786646 0.07225386051 0.002348902774)
        Viscous  : (0.01242772219 0.0004983840209 -7.066990101e-05)
    Sum of moments
        Total    : (-0.009940624636 0.003392835854 7.022375265e-05)
        Pressure : (-0.009861125966 0.001477058298 0.0001041751912)
        Viscous  : (-7.949866946e-05 0.001915777556 -3.395143857e-05)
    writing force and moment files.

forceCoeffs forceCoeffs_object write:
    Coefficient	Total	Pressure	Viscous	Internal
    Cd:	0.03663084805	0.01591797774	0.02071287031	0
    Cd(f):	-0.1473616532	-0.1563931106	0.009031457331	0
    Cd(r):	0.1839925013	0.1723110883	0.01168141298	0
    Cl:	0.1212537409	0.1204231009	0.0008306400348	0
    Cl(f):	0.05945647457	0.05847529724	0.0009811773268	0
    Cl(r):	0.06179726632	0.06194780361	-0.000150537292	0
    CmPitch:	-0.001170395877	-0.001736253187	0.0005658573094	0
    CmRoll:	-0.1656770773	-0.1643520994	-0.001324977824	0
    CmYaw:	0.05654726424	0.0246176383	0.03192962594	0
    Cs:	-0.003797054788	-0.003914837956	0.0001177831684	0
    Cs(f):	0.05464873684	0.02266021932	0.03198851752	0
    Cs(r):	-0.05844579163	-0.02657505728	-0.03187073435	0

    writing force and moment coefficient files.

Time = 22

DILUPBiCGStab:  Solving for Ux, Initial residual = 0.001515130751, Final residual = 6.091444036e-09, No Iterations 5
DILUPBiCGStab:  Solving for Uy, Initial residual = 0.01698094359, Final residual = 7.158839034e-09, No Iterations 6
DILUPBiCGStab:  Solving for Uz, Initial residual = 0.01357597158, Final residual = 6.423750824e-09, No Iterations 5
GAMG:  Solving for p, Initial residual = 0.03414241584, Final residual = 7.712064431e-07, No Iterations 9
GAMG:  Solving for p, Initial residual = 0.00545845805, Final residual = 5.244046386e-07, No Iterations 6
GAMG:  Solving for p, Initial residual = 0.001112698923, Final residual = 3.40840666e-07, No Iterations 5
time step continuity errors : sum local = 1.252930003e-08, global = -1.349892761e-10, cumulative = -1.97502442e-09
ExecutionTime = 26.01 s  ClockTime = 26 s

forces forces_object write:
    Sum of forces
        Total    : (0.02133809579 0.07030235094 0.00228768865)
        Pressure : (0.00916230911 0.06979628497 0.002359563777)
        Viscous  : (0.01217578668 0.0005060659648 -7.187512672e-05)
    Sum of moments
        Total    : (-0.009592414505 0.003298961759 -5.796154327e-06)
        Pressure : (-0.009511820209 0.001420384954 2.755860586e-05)
        Viscous  : (-8.059429602e-05 0.001878576806 -3.335476019e-05)
    writing force and moment files.

forceCoeffs forceCoeffs_object write:
    Coefficient	Total	Pressure	Viscous	Internal
    Cd:	0.03556349299	0.01527051518	0.02029297781	0
    Cd(f):	-0.1420918286	-0.1508950792	0.008803250637	0
    Cd(r):	0.1776553216	0.1661655944	0.01148972717	0
    Cl:	0.1171705849	0.1163271416	0.0008434432747	0
    Cl(f):	0.05868189502	0.05770426071	0.0009776343071	0
    Cl(r):	0.05848868987	0.05862288091	-0.0001341910324	0
    CmPitch:	9.660257212e-05	-0.0004593100977	0.0005559126698	0
    CmRoll:	-0.1598735751	-0.1585303368	-0.001343238267	0
    CmYaw:	0.05498269599	0.02367308256	0.03130961343	0
    Cs:	-0.003812814417	-0.003932606294	0.0001197918779	0
    Cs(f):	0.05307628878	0.02170677942	0.03136950937	0
    Cs(r):	-0.0568891032	-0.02563938571	-0.03124971749	0

    writing force and moment coefficient files.

Time = 23

DILUPBiCGStab:  Solving for Ux, Initial residual = 0.001373881934, Final residual = 2.709563594e-09, No Iterations 5
DILUPBiCGStab:  Solving for Uy, Initial residual = 0.01528137272, Final residual = 6.069880569e-09, No Iterations 6
DILUPBiCGStab:  Solving for Uz, Initial residual = 0.01266587428, Final residual = 4.89503844e-09, No Iterations 5
GAMG:  Solving for p, Initial residual = 0.03142009248, Final residual = 5.146077406e-07, No Iterations 9
GAMG:  Solving for p, Initial residual = 0.005169174886, Final residual = 5.883510484e-07, No Iterations 6
GAMG:  Solving for p, Initial residual = 0.001062402015, Final residual = 4.159764229e-07, No Iterations 5
time step continuity errors : sum local = 1.525868275e-08, global = 1.468290628e-10, cumulative = -1.828195357e-09
ExecutionTime = 27.05 s  ClockTime = 27 s

forces forces_object write:
    Sum of forces
        Total    : (0.02102805706 0.0680839175 0.002269607047)
        Pressure : (0.009080048503 0.0675714672 0.002342278147)
        Viscous  : (0.01194800856 0.000512450303 -7.267109951e-05)
    Sum of moments
        Total    : (-0.009279881671 0.003253066886 -1.21313492e-05)
        Pressure : (-0.009198376444 0.001408171789 2.041617164e-05)
        Viscous  : (-8.150522675e-05 0.001844895096 -3.254752084e-05)
    writing force and moment files.

forceCoeffs forceCoeffs_object write:
    Coefficient	Total	Pressure	Viscous	Internal
    Cd:	0.03504676177	0.01513341417	0.01991334759	0
    Cd(f):	-0.1371413136	-0.145739567	0.008598253351	0
    Cd(r):	0.1721880754	0.1608729812	0.01131509424	0
    Cl:	0.1134731958	0.112619112	0.0008540838383	0
    Cl(f):	0.05693878707	0.05596928647	0.0009695005999	0
    Cl(r):	0.05653440876	0.05664982552	-0.0001154167616	0
    CmPitch:	0.0002021891533	-0.0003402695274	0.0005424586807	0
    CmRoll:	-0.1546646945	-0.1533062741	-0.001358420446	0
    CmYaw:	0.05421778143	0.02346952982	0.03074825161	0
    Cs:	-0.003782678412	-0.003903796911	0.0001211184992	0
    Cs(f):	0.05232644222	0.02151763136	0.03080881086	0
    Cs(r):	-0.05610912063	-0.02542142827	-0.03068769236	0

    writing force and moment coefficient files.

Time = 24

DILUPBiCGStab:  Solving for Ux, Initial residual = 0.001266005658, Final residual = 3.902866016e-09, No Iterations 5
DILUPBiCGStab:  Solving for Uy, Initial residual = 0.01351274418, Final residual = 3.97275894e-09, No Iterations 6
DILUPBiCGStab:  Solving for Uz, Initial residual = 0.01249057705, Final residual = 3.631021076e-09, No Iterations 5
GAMG:  Solving for p, Initial residual = 0.02805951136, Final residual = 5.438228708e-07, No Iterations 9
GAMG:  Solving for p, Initial residual = 0.004411383604, Final residual = 4.381333152e-07, No Iterations 6
GAMG:  Solving for p, Initial residual = 0.0008082277658, Final residual = 3.683509531e-07, No Iterations 5
time step continuity errors : sum local = 1.365120678e-08, global = 7.677338423e-12, cumulative = -1.820518019e-09
ExecutionTime = 28.18 s  ClockTime = 28 s

forces forces_object write:
    Sum of forces
        Total    : (0.02110731988 0.06718658328 0.002256584018)
        Pressure : (0.009369609443 0.06666456457 0.002330272445)
        Viscous  : (0.01173771044 0.0005220187088 -7.368842679e-05)
    Sum of moments
        Total    : (-0.009171390081 0.003264516174 3.392637259e-05)
        Pressure : (-0.009088582918 0.001450638835 6.576446584e-05)
        Viscous  : (-8.28071629e-05 0.001813877339 -3.183809325e-05)
    writing force and moment files.

forceCoeffs forceCoeffs_object write:
    Coefficient	Total	Pressure	Viscous	Internal
    Cd:	0.03517886647	0.01561601574	0.01956285073	0
    Cd(f):	-0.1352670681	-0.1436683741	0.008401305984	0
    Cd(r):	0.1704459346	0.1592843898	0.01116154475	0
    Cl:	0.1119776388	0.1111076076	0.0008700311814	0
    Cl(f):	0.05542337986	0.05445772938	0.0009656504782	0
    Cl(r):	0.05655425895	0.05664987824	-9.561929683e-05	0
    CmPitch:	-0.0005654395431	-0.001096074431	0.0005306348875	0
    CmRoll:	-0.1528565014	-0.151476382	-0.001380119382	0
    CmYaw:	0.05440860289	0.02417731391	0.03023128898	0
    Cs:	-0.003760973363	-0.003883787408	0.0001228140446	0
    Cs(f):	0.05252811621	0.02223542021	0.03029269601	0
    Cs(r):	-0.05628908958	-0.02611920761	-0.03016988196	0

    writing force and moment coefficient files.

Time = 25

DILUPBiCGStab:  Solving for Ux, Initial residual = 0.001171914787, Final residual = 1.175987594e-09, No Iterations 5
DILUPBiCGStab:  Solving for Uy, Initial residual = 0.01198092439, Final residual = 2.761268889e-09, No Iterations 6
DILUPBiCGStab:  Solving for Uz, Initial residual = 0.01194439135, Final residual = 3.793953527e-09, No Iterations 5
GAMG:  Solving for p, Initial residual = 0.02491959789, Final residual = 6.122365796e-07, No Iterations 9
GAMG:  Solving for p, Initial residual = 0.003861622778, Final residual = 5.184089256e-07, No Iterations 6
GAMG:  Solving for p, Initial residual = 0.0007828003781, Final residual = 9.111196258e-07, No Iterations 4
time step continuity errors : sum local = 3.372579429e-08, global = -1.668743256e-10, cumulative = -1.987392344e-09
ExecutionTime = 29.24 s  ClockTime = 29 s

forces forces_object write:
    Sum of forces
        Total    : (0.02103192449 0.06710722246 0.00225448964)
        Pressure : (0.00949379873 0.06657975041 0.002329607229)
        Viscous  : (0.01153812576 0.000527472048 -7.511758903e-05)
    Sum of moments
        Total    : (-0.009170998635 0.003252731709 6.132798185e-05)
        Pressure : (-0.009087402778 0.001468188677 9.246294903e-05)
        Viscous  : (-8.359585665e-05 0.001784543032 -3.113496719e-05)
    writing force and moment files.

forceCoeffs forceCoeffs_object write:
    Coefficient	Total	Pressure	Viscous	Internal
    Cd:	0.03505320749	0.01582299788	0.01923020961	0
    Cd(f):	-0.1353233735	-0.143545214	0.008221840526	0
    Cd(r):	0.170376581	0.1593682119	0.01100836908	0
    Cl:	0.1118453708	0.1109662507	0.00087912008	0
    Cl(f):	0.05490055235	0.05394207619	0.0009584761597	0
    Cl(r):	0.05694481841	0.05702417449	-7.93560798e-05	0
    CmPitch:	-0.001022133031	-0.001541049151	0.0005189161198	0
    CmRoll:	-0.1528499772	-0.151456713	-0.001393264277	0
    CmYaw:	0.05421219516	0.02446981129	0.02974238387	0
    Cs:	-0.003757482734	-0.003882678715	0.0001251959817	0
    Cs(f):	0.05233345379	0.02252847193	0.02980498186	0
    Cs(r):	-0.05609093652	-0.02641115065	-0.02967978588	0

    writing force and moment coefficient files.

Time = 26

DILUPBiCGStab:  Solving for Ux, Initial residual = 0.001044930279, Final residual = 7.802459085e-10, No Iterations 5
DILUPBiCGStab:  Solving for Uy, Initial residual = 0.01100357992, Final residual = 1.826743701e-09, No Iterations 6
DILUPBiCGStab:  Solving for Uz, Initial residual = 0.01078906961, Final residual = 5.266687582e-09, No Iterations 5
GAMG:  Solving for p, Initial residual = 0.02339715876, Final residual = 9.812088753e-07, No Iterations 8
GAMG:  Solving for p, Initial residual = 0.003707229493, Final residual = 4.521409487e-07, No Iterations 6
GAMG:  Solving for p, Initial residual = 0.0007736239437, Final residual = 3.920860937e-07, No Iterations 5
time step continuity errors : sum local = 1.436435285e-08, global = 7.091351442e-11, cumulative = -1.91647883e-09
ExecutionTime = 30.32 s  ClockTime = 30 s

forces forces_object write:
    Sum of forces
        Total    : (0.02067670868 0.0662706053 0.002251524971)
        Pressure : (0.009323243922 0.06573760819 0.002327882188)
        Viscous  : (0.01135346475 0.0005329971101 -7.635721719e-05)
    Sum of moments
        Total    : (-0.009051909632 0.003200190552 3.943966469e-05)
        Pressure : (-0.008967560579 0.001442772892 7.012142146e-05)
        Viscous  : (-8.43490531e-05 0.00175741766 -3.068175677e-05)
    writing force and moment files.

forceCoeffs forceCoeffs_object write:
    Coefficient	Total	Pressure	Viscous	Internal
    Cd:	0.03446118113	0.01553873987	0.01892244126	0
    Cd(f):	-0.13363457	-0.141689973	0.008055403077	0
    Cd(r):	0.1680957511	0.1572287129	0.01086703818	0
    Cl:	0.1104510088	0.1095626803	0.0008883285169	0
    Cl(f):	0.05456817667	0.0536126498	0.0009555268713	0
    Cl(r):	0.05588283216	0.05595003051	-6.719835437e-05	0
    CmPitch:	-0.0006573277448	-0.001168690358	0.0005113626128	0
    CmRoll:	-0.1508651605	-0.149459343	-0.001405817552	0
    CmYaw:	0.0533365092	0.02404621487	0.02929029433	0
    Cs:	-0.003752541618	-0.003879803646	0.0001272620287	0
    Cs(f):	0.0514602384	0.02210631305	0.02935392535	0
    Cs(r):	-0.05521278001	-0.02598611669	-0.02922666332	0

    writing force and moment coefficient files.

Time = 27

DILUPBiCGStab:  Solving for Ux, Initial residual = 0.0009284557775, Final residual = 1.185661993e-09, No Iterations 5
DILUPBiCGStab:  Solving for Uy, Initial residual = 0.009860013025, Final residual = 1.283897665e-09, No Iterations 6
DILUPBiCGStab:  Solving for Uz, Initial residual = 0.01021896863, Final residual = 4.610715901e-09, No Iterations 5
GAMG:  Solving for p, Initial residual = 0.02047806736, Final residual = 4.15157667e-07, No Iterations 9
GAMG:  Solving for p, Initial residual = 0.003279126451, Final residual = 8.239688903e-07, No Iterations 5
GAMG:  Solving for p, Initial residual = 0.0007338407375, Final residual = 9.450497877e-07, No Iterations 4
time step continuity errors : sum local = 3.467077316e-08, global = 2.94747242e-11, cumulative = -1.887004106e-09
ExecutionTime = 31.38 s  ClockTime = 31 s

forces forces_object write:
    Sum of forces
        Total    : (0.02042911127 0.06456395072 0.002248433877)
        Pressure : (0.009238903399 0.06402853451 0.002325592713)
        Viscous  : (0.01119020787 0.0005354162179 -7.715883553e-05)
    Sum of moments
        Total    : (-0.00881149302 0.003164295099 1.294832222e-05)
        Pressure : (-0.008726794323 0.001430926057 4.31033972e-05)
        Viscous  : (-8.469869688e-05 0.001733369042 -3.015507498e-05)
    writing force and moment files.

forceCoeffs forceCoeffs_object write:
    Coefficient	Total	Pressure	Viscous	Internal
    Cd:	0.03404851879	0.01539817233	0.01865034646	0
    Cd(f):	-0.1298339576	-0.1377474859	0.00791352828	0
    Cd(r):	0.1638824764	0.1531456582	0.01073681818	0
    Cl:	0.1076065845	0.1067142242	0.0008923603632	0
    Cl(f):	0.0535874869	0.05263872213	0.0009487647646	0
    Cl(r):	0.05401909764	0.05407550204	-5.640440138e-05	0
    CmPitch:	-0.0002158053704	-0.0007183899534	0.000502584583	0
    CmRoll:	-0.146858217	-0.145446572	-0.001411644948	0
    CmYaw:	0.05273825165	0.02384876762	0.02888948403	0
    Cs:	-0.003747389795	-0.003875987854	0.0001285980592	0
    Cs(f):	0.05086455675	0.0219107737	0.02895378306	0
    Cs(r):	-0.05461194655	-0.02578676155	-0.028825185	0

    writing force and moment coefficient files.

Time = 28

DILUPBiCGStab:  Solving for Ux, Initial residual = 0.0008408063158, Final residual = 1.795644081e-09, No Iterations 5
DILUPBiCGStab:  Solving for Uy, Initial residual = 0.008976308997, Final residual = 6.97017447e-09, No Iterations 5
DILUPBiCGStab:  Solving for Uz, Initial residual = 0.009972061044, Final residual = 3.655773751e-09, No Iterations 5
GAMG:  Solving for p, Initial residual = 0.01881860608, Final residual = 3.890115242e-07, No Iterations 9
GAMG:  Solving for p, Initial residual = 0.003007245803, Final residual = 3.419304569e-07, No Iterations 6
GAMG:  Solving for p, Initial residual = 0.0007166733553, Final residual = 9.143083717e-07, No Iterations 4
time step continuity errors : sum local = 3.386957004e-08, global = -2.596898627e-11, cumulative = -1.912973092e-09
ExecutionTime = 32.53 s  ClockTime = 32 s

forces forces_object write:
    Sum of forces
        Total    : (0.02038999575 0.06310662162 0.002253017647)
        Pressure : (0.009346610972 0.06256607568 0.002330910722)
        Viscous  : (0.01104338478 0.0005405459408 -7.789307459e-05)
    Sum of moments
        Total    : (-0.008613835102 0.003158343456 1.272133702e-05)
        Pressure : (-0.008528457237 0.001446605968 4.243408875e-05)
        Viscous  : (-8.537786467e-05 0.001711737487 -2.971275173e-05)
    writing force and moment files.

forceCoeffs forceCoeffs_object write:
    Coefficient	Total	Pressure	Viscous	Internal
    Cd:	0.03398332625	0.01557768495	0.0184056413	0
    Cd(f):	-0.1265722552	-0.1343521115	0.007779856238	0
    Cd(r):	0.1605555815	0.1499297964	0.01062578506	0
    Cl:	0.1051777027	0.1042767928	0.0009009099014	0
    Cl(f):	0.05237682907	0.05143116159	0.0009456674795	0
    Cl(r):	0.05280087363	0.05284563121	-4.475757813e-05	0
    CmPitch:	-0.0002120222837	-0.0007072348125	0.0004952125288	0
    CmRoll:	-0.1435639184	-0.142140954	-0.001422964411	0
    CmYaw:	0.05263905759	0.02411009947	0.02852895812	0
    Cs:	-0.003755029412	-0.003884851203	0.000129821791	0
    Cs(f):	0.05076154289	0.02216767387	0.02859386902	0
    Cs(r):	-0.0545165723	-0.02605252507	-0.02846404723	0

    writing force and moment coefficient files.

Time = 29

DILUPBiCGStab:  Solving for Ux, Initial residual = 0.0007590119265, Final residual = 1.116264985e-09, No Iterations 5
DILUPBiCGStab:  Solving for Uy, Initial residual = 0.008123293935, Final residual = 4.889910996e-09, No Iterations 6
DILUPBiCGStab:  Solving for Uz, Initial residual = 0.00935790048, Final residual = 4.186346112e-09, No Iterations 5
GAMG:  Solving for p, Initial residual = 0.0177938423, Final residual = 7.291447118e-07, No Iterations 8
GAMG:  Solving for p, Initial residual = 0.002712981867, Final residual = 3.470187958e-07, No Iterations 6
GAMG:  Solving for p, Initial residual = 0.0005914905223, Final residual = 6.771664333e-07, No Iterations 4
time step continuity errors : sum local = 2.516553625e-08, global = -1.995311964e-10, cumulative = -2.112504288e-09
ExecutionTime = 33.59 s  ClockTime = 34 s

forces forces_object write:
    Sum of forces
        Total    : (0.02037257847 0.06248496125 0.002256733039)
        Pressure : (0.009467024324 0.06193994262 0.002335550649)
        Viscous  : (0.01090555414 0.0005450186318 -7.881760991e-05)
    Sum of moments
        Total    : (-0.00853658813 0.003155712591 3.138293079e-05)
        Pressure : (-0.008450612398 0.001464250721 6.05275983e-05)
        Viscous  : (-8.597573188e-05 0.001691461871 -2.914466752e-05)
    writing force and moment files.

forceCoeffs forceCoeffs_object write:
    Coefficient	Total	Pressure	Viscous	Internal
    Cd:	0.03395429744	0.01577837387	0.01817592357	0
    Cd(f):	-0.1252993201	-0.132954353	0.007655032919	0
    Cd(r):	0.1592536176	0.1487327269	0.01052089065	0
    Cl:	0.1041416021	0.1032332377	0.0009083643864	0
    Cl(f):	0.05154775219	0.05060782554	0.0009399266518	0
    Cl(r):	0.05259384989	0.05262541215	-3.156226544e-05	0
    CmPitch:	-0.0005230488464	-0.001008793305	0.0004857444586	0
    CmRoll:	-0.1422764688	-0.14084354	-0.001432928865	0
    CmYaw:	0.05259520986	0.02440417868	0.02819103118	0
    Cs:	-0.003761221732	-0.003892584415	0.0001313626832	0
    Cs(f):	0.05071459899	0.02245788647	0.02825671252	0
    Cs(r):	-0.05447582072	-0.02635047088	-0.02812534984	0

    writing force and moment coefficient files.

Time = 30

DILUPBiCGStab:  Solving for Ux, Initial residual = 0.0006744846921, Final residual = 9.640364992e-10, No Iterations 5
DILUPBiCGStab:  Solving for Uy, Initial residual = 0.007214421447, Final residual = 6.45616642e-09, No Iterations 5
DILUPBiCGStab:  Solving for Uz, Initial residual = 0.008790762952, Final residual = 3.031769119e-09, No Iterations 5
GAMG:  Solving for p, Initial residual = 0.01525465348, Final residual = 5.200244368e-07, No Iterations 8
GAMG:  Solving for p, Initial residual = 0.002261827105, Final residual = 7.109279903e-07, No Iterations 5
GAMG:  Solving for p, Initial residual = 0.0005484849936, Final residual = 7.179477053e-07, No Iterations 4
time step continuity errors : sum local = 2.65070856e-08, global = -2.122753385e-12, cumulative = -2.114627042e-09
ExecutionTime = 34.63 s  ClockTime = 35 s

forces forces_object write:
    Sum of forces
        Total    : (0.02024452429 0.06180668721 0.002249890384)
        Pressure : (0.009469579283 0.06125568929 0.002329732713)
        Viscous  : (0.01077494501 0.0005509979164 -7.984232931e-05)
    Sum of moments
        Total    : (-0.008448007195 0.003136635763 3.755383025e-05)
        Pressure : (-0.008361249844 0.001464337456 6.627679797e-05)
        Viscous  : (-8.675735116e-05 0.001672298307 -2.872296773e-05)
    writing force and moment files.

forceCoeffs forceCoeffs_object write:
    Coefficient	Total	Pressure	Viscous	Internal
    Cd:	0.03374087382	0.01578263214	0.01795824168	0
    Cd(f):	-0.123929683	-0.131462848	0.007533164989	0
    Cd(r):	0.1576705568	0.1472454801	0.01042507669	0
    Cl:	0.1030111453	0.1020928155	0.0009183298606	0
    Cl(f):	0.0508796755	0.04994179444	0.0009378810591	0
    Cl(r):	0.05213146985	0.05215102104	-1.955119844e-05	0
    CmPitch:	-0.0006258971708	-0.0011046133	0.0004787161288	0
    CmRoll:	-0.1408001199	-0.1393541641	-0.001445955853	0
    CmYaw:	0.05227726271	0.02440562427	0.02787163845	0
    Cs:	-0.003749817306	-0.003882887855	0.0001330705489	0
    Cs(f):	0.05040235406	0.02246418034	0.02793817372	0
    Cs(r):	-0.05415217137	-0.02634706819	-0.02780510318	0

    writing force and moment coefficient files.

Time = 31

DILUPBiCGStab:  Solving for Ux, Initial residual = 0.0005907574485, Final residual = 8.944008445e-10, No Iterations 5
DILUPBiCGStab:  Solving for Uy, Initial residual = 0.006541394684, Final residual = 7.881694268e-09, No Iterations 5
DILUPBiCGStab:  Solving for Uz, Initial residual = 0.008274527339, Final residual = 2.669424464e-09, No Iterations 5
GAMG:  Solving for p, Initial residual = 0.01393725787, Final residual = 6.015035605e-07, No Iterations 8
GAMG:  Solving for p, Initial residual = 0.001959055578, Final residual = 5.382792889e-07, No Iterations 5
GAMG:  Solving for p, Initial residual = 0.0005308578638, Final residual = 7.730120469e-07, No Iterations 4
time step continuity errors : sum local = 2.837747334e-08, global = 6.731306188e-11, cumulative = -2.04731398e-09
ExecutionTime = 35.68 s  ClockTime = 36 s

forces forces_object write:
    Sum of forces
        Total    : (0.02007888911 0.06088506076 0.002238406897)
        Pressure : (0.009423247949 0.06033123886 0.002319151032)
        Viscous  : (0.01065564116 0.0005538219034 -8.074413572e-05)
    Sum of moments
        Total    : (-0.008322844991 0.003111978205 2.826046829e-05)
        Pressure : (-0.008235721999 0.00145721363 5.65295704e-05)
        Viscous  : (-8.712299131e-05 0.001654764575 -2.826910211e-05)
    writing force and moment files.

forceCoeffs forceCoeffs_object write:
    Coefficient	Total	Pressure	Viscous	Internal
    Cd:	0.03346481518	0.01570541325	0.01775940193	0
    Cd(f):	-0.1219816756	-0.1294093267	0.00742765111	0
    Cd(r):	0.1554464908	0.1451147399	0.01033175082	0
    Cl:	0.1014751013	0.1005520648	0.0009230365057	0
    Cl(f):	0.05026654283	0.04933387287	0.0009326699547	0
    Cl(r):	0.05120855844	0.05121819189	-9.633449037e-06	0
    CmPitch:	-0.0004710078048	-0.0009421595067	0.0004711517019	0
    CmRoll:	-0.1387140832	-0.1372620333	-0.001452049855	0
    CmYaw:	0.05186630341	0.02428689383	0.02757940958	0
    Cs:	-0.003730678161	-0.00386525172	0.0001345735595	0
    Cs(f):	0.05000096433	0.02235426797	0.02764669636	0
    Cs(r):	-0.05373164249	-0.02621951969	-0.0275121228	0

    writing force and moment coefficient files.

Time = 32

DILUPBiCGStab:  Solving for Ux, Initial residual = 0.0005268200645, Final residual = 9.826909557e-10, No Iterations 5
DILUPBiCGStab:  Solving for Uy, Initial residual = 0.0057410511, Final residual = 1.832668933e-09, No Iterations 6
DILUPBiCGStab:  Solving for Uz, Initial residual = 0.007650530408, Final residual = 3.377353663e-09, No Iterations 5
GAMG:  Solving for p, Initial residual = 0.01306583398, Final residual = 4.168276131e-07, No Iterations 8
GAMG:  Solving for p, Initial residual = 0.001856057008, Final residual = 5.518406212e-07, No Iterations 5
GAMG:  Solving for p, Initial residual = 0.000521054693, Final residual = 6.849847784e-07, No Iterations 4
time step continuity errors : sum local = 2.517779363e-08, global = -1.119920955e-10, cumulative = -2.159306075e-09
ExecutionTime = 36.78 s  ClockTime = 37 s

forces forces_object write:
    Sum of forces
        Total    : (0.01999613231 0.05984159422 0.002233301381)
        Pressure : (0.009447891803 0.05928400669 0.00231478608)
        Viscous  : (0.01054824051 0.0005575875237 -8.148469925e-05)
    Sum of moments
        Total    : (-0.008183272883 0.003099854307 2.371282221e-05)
        Pressure : (-0.008095671967 0.001460888764 5.164782522e-05)
        Viscous  : (-8.760091567e-05 0.001638965543 -2.793500302e-05)
    writing force and moment files.

forceCoeffs forceCoeffs_object write:
    Coefficient	Total	Pressure	Viscous	Internal
    Cd:	0.03332688719	0.01574648634	0.01758040085	0
    Cd(f):	-0.1197244378	-0.1270546229	0.007330185163	0
    Cd(r):	0.153051325	0.1428011093	0.01025021569	0
    Cl:	0.09973599036	0.09880667782	0.0009293125396	0
    Cl(f):	0.04947278148	0.04854254182	0.0009302396534	0
    Cl(r):	0.05026320888	0.050264136	-9.271138181e-07	0
    CmPitch:	-0.0003952137035	-0.0008607970871	0.0004655833836	0
    CmRoll:	-0.1363878814	-0.1349278661	-0.001460015261	0
    CmYaw:	0.05166423845	0.02434814607	0.02731609239	0
    Cs:	-0.003722168969	-0.003857976801	0.0001358078321	0
    Cs(f):	0.04980315397	0.02241915767	0.0273839963	0
    Cs(r):	-0.05352532294	-0.02627713447	-0.02724818847	0

    writing force and moment coefficient files.

Time = 33

DILUPBiCGStab:  Solving for Ux, Initial residual = 0.000477710314, Final residual = 1.201773035e-09, No Iterations 5
DILUPBiCGStab:  Solving for Uy, Initial residual = 0.005171529021, Final residual = 5.683689805e-09, No Iterations 5
DILUPBiCGStab:  Solving for Uz, Initial residual = 0.007275954309, Final residual = 4.226945442e-09, No Iterations 5
GAMG:  Solving for p, Initial residual = 0.01102183069, Final residual = 6.08948597e-07, No Iterations 7
GAMG:  Solving for p, Initial residual = 0.001739878501, Final residual = 5.379081766e-07, No Iterations 5
GAMG:  Solving for p, Initial residual = 0.0004925443261, Final residual = 4.936622109e-07, No Iterations 4
time step continuity errors : sum local = 1.820847789e-08, global = -2.212727219e-10, cumulative = -2.380578797e-09
ExecutionTime = 37.79 s  ClockTime = 38 s

forces forces_object write:
    Sum of forces
        Total    : (0.01993956659 0.05879562244 0.002236796034)
        Pressure : (0.009488814571 0.05823627703 0.002318930692)
        Viscous  : (0.01045075202 0.0005593454105 -8.213465778e-05)
    Sum of moments
        Total    : (-0.008044204664 0.003091770441 2.549598872e-05)
        Pressure : (-0.007956374945 0.00146716246 5.302808965e-05)
        Viscous  : (-8.782971898e-05 0.001624607982 -2.753210093e-05)
    writing force and moment files.

forceCoeffs forceCoeffs_object write:
    Coefficient	Total	Pressure	Viscous	Internal
    Cd:	0.03323261098	0.01581469095	0.01741792003	0
    Cd(f):	-0.1174537722	-0.1246989036	0.007245131364	0
    Cd(r):	0.1506863832	0.1405135946	0.01017278866	0
    Cl:	0.09799270407	0.09706046172	0.0009322423509	0
    Cl(f):	0.04857141889	0.04764642936	0.0009249895243	0
    Cl(r):	0.04942128518	0.04941403235	7.25282661e-06	0
    CmPitch:	-0.0004249331453	-0.0008838014941	0.0004588683488	0
    CmRoll:	-0.1340700777	-0.1326062491	-0.00146382865	0
    CmYaw:	0.05152950735	0.02445270766	0.02707679969	0
    Cs:	-0.00372799339	-0.003864884487	0.0001368910963	0
    Cs(f):	0.04966551066	0.02252026542	0.02714524524	0
    Cs(r):	-0.05339350405	-0.02638514991	-0.02700835414	0

    writing force and moment coefficient files.

Time = 34

DILUPBiCGStab:  Solving for Ux, Initial residual = 0.0004319106653, Final residual = 1.079149269e-09, No Iterations 5
DILUPBiCGStab:  Solving for Uy, Initial residual = 0.0050602288, Final residual = 9.538317294e-09, No Iterations 5
DILUPBiCGStab:  Solving for Uz, Initial residual = 0.007149132801, Final residual = 4.119127331e-09, No Iterations 5
GAMG:  Solving for p, Initial residual = 0.01000167607, Final residual = 7.612548509e-07, No Iterations 7
GAMG:  Solving for p, Initial residual = 0.001528086658, Final residual = 4.418256841e-07, No Iterations 5
GAMG:  Solving for p, Initial residual = 0.0004104033717, Final residual = 4.416304884e-07, No Iterations 4
time step continuity errors : sum local = 1.633099594e-08, global = 1.699931923e-11, cumulative = -2.363579478e-09
ExecutionTime = 38.75 s  ClockTime = 39 s

forces forces_object write:
    Sum of forces
        Total    : (0.01988374082 0.05790486955 0.002241446795)
        Pressure : (0.009523081311 0.05734261289 0.002324218521)
        Viscous  : (0.01036065951 0.0005622566569 -8.277172655e-05)
    Sum of moments
        Total    : (-0.007928732576 0.003083695335 2.881309569e-05)
        Pressure : (-0.00784052079 0.001472375206 5.606247802e-05)
        Viscous  : (-8.821178651e-05 0.001611320129 -2.724938233e-05)
    writing force and moment files.

forceCoeffs forceCoeffs_object write:
    Coefficient	Total	Pressure	Viscous	Internal
    Cd:	0.03313956804	0.01587180219	0.01726776585	0
    Cd(f):	-0.1155757589	-0.1227394454	0.007163686485	0
    Cd(r):	0.148715327	0.1386112476	0.01010407937	0
    Cl:	0.09650811591	0.09557102148	0.0009370944281	0
    Cl(f):	0.04777383969	0.04685113611	0.0009227035862	0
    Cl(r):	0.04873427622	0.04871988538	1.439084194e-05	0
    CmPitch:	-0.0004802182616	-0.0009343746337	0.0004541563721	0
    CmRoll:	-0.1321455429	-0.1306753465	-0.001470196442	0
    CmYaw:	0.05139492224	0.02453958677	0.02685533548	0
    Cs:	-0.003735744658	-0.003873697535	0.0001379528776	0
    Cs(f):	0.04952704991	0.022602738	0.02692431192	0
    Cs(r):	-0.05326279457	-0.02647643553	-0.02678635904	0

    writing force and moment coefficient files.

Time = 35

DILUPBiCGStab:  Solving for Ux, Initial residual = 0.0003901235023, Final residual = 1.146722327e-09, No Iterations 5
DILUPBiCGStab:  Solving for Uy, Initial residual = 0.004456325055, Final residual = 5.977102146e-09, No Iterations 5
DILUPBiCGStab:  Solving for Uz, Initial residual = 0.006772443412, Final residual = 4.878069889e-09, No Iterations 5
GAMG:  Solving for p, Initial residual = 0.009046627285, Final residual = 5.352316647e-07, No Iterations 7
GAMG:  Solving for p, Initial residual = 0.001366354266, Final residual = 3.448593883e-07, No Iterations 5
GAMG:  Solving for p, Initial residual = 0.0003819343055, Final residual = 5.197160311e-07, No Iterations 4
time step continuity errors : sum local = 1.922926717e-08, global = 1.999826442e-10, cumulative = -2.163596834e-09
ExecutionTime = 39.77 s  ClockTime = 40 s

forces forces_object write:
    Sum of forces
        Total    : (0.01982754215 0.05709434148 0.002240973097)
        Pressure : (0.009548139893 0.05653138809 0.002324428098)
        Viscous  : (0.01027940226 0.0005629533896 -8.345500126e-05)
    Sum of moments
        Total    : (-0.007823008477 0.003075196961 2.803971212e-05)
        Pressure : (-0.007734708742 0.001475963901 5.497494354e-05)
        Viscous  : (-8.829973466e-05 0.00159923306 -2.693523142e-05)
    writing force and moment files.

forceCoeffs forceCoeffs_object write:
    Coefficient	Total	Pressure	Viscous	Internal
    Cd:	0.03304590358	0.01591356649	0.0171323371	0
    Cd(f):	-0.1138605228	-0.1209550291	0.007094506303	0
    Cd(r):	0.1469064264	0.1368685956	0.01003783079	0
    Cl:	0.0951572358	0.09421898015	0.0009382556493	0
    Cl(f):	0.04711128936	0.04619324102	0.0009180483484	0
    Cl(r):	0.04804594643	0.04802573913	2.020730096e-05	0
    CmPitch:	-0.0004673285353	-0.000916249059	0.0004489205237	0
    CmRoll:	-0.1303834746	-0.1289118124	-0.001471662244	0
    CmYaw:	0.05125328268	0.02459939835	0.02665388433	0
    Cs:	-0.003734955162	-0.00387404683	0.0001390916688	0
    Cs(f):	0.0493858051	0.02266237493	0.02672343017	0
    Cs(r):	-0.05312076026	-0.02653642176	-0.0265843385	0

    writing force and moment coefficient files.

Time = 36

DILUPBiCGStab:  Solving for Ux, Initial residual = 0.0003492247435, Final residual = 1.350064746e-10, No Iterations 6
DILUPBiCGStab:  Solving for Uy, Initial residual = 0.003937349216, Final residual = 6.536914774e-09, No Iterations 5
DILUPBiCGStab:  Solving for Uz, Initial residual = 0.006551070319, Final residual = 4.425938797e-09, No Iterations 5
GAMG:  Solving for p, Initial residual = 0.007991148205, Final residual = 3.784066193e-07, No Iterations 7
GAMG:  Solving for p, Initial residual = 0.001200661119, Final residual = 3.582663966e-07, No Iterations 5
GAMG:  Solving for p, Initial residual = 0.0003394279759, Final residual = 4.871091386e-07, No Iterations 4
time step continuity errors : sum local = 1.800575326e-08, global = 8.644414308e-11, cumulative = -2.077152691e-09
ExecutionTime = 40.75 s  ClockTime = 41 s

forces forces_object write:
    Sum of forces
        Total    : (0.01977382301 0.05609691482 0.002236591098)
        Pressure : (0.009567609695 0.05553252072 0.002320732653)
        Viscous  : (0.01020621332 0.0005643941008 -8.414155548e-05)
    Sum of moments
        Total    : (-0.00769185323 0.003067400895 2.218651529e-05)
        Pressure : (-0.007603366617 0.001479091803 4.892153012e-05)
        Viscous  : (-8.848661394e-05 0.001588309091 -2.673501483e-05)
    writing force and moment files.

forceCoeffs forceCoeffs_object write:
    Coefficient	Total	Pressure	Viscous	Internal
    Cd:	0.03295637168	0.01594601616	0.01701035553	0
    Cd(f):	-0.111719368	-0.1187497689	0.007030400863	0
    Cd(r):	0.1446757397	0.134695785	0.009979954662	0
    Cl:	0.09349485803	0.0925542012	0.0009406568346	0
    Cl(f):	0.04637765376	0.04546174176	0.0009159119979	0
    Cl(r):	0.04711720427	0.04709245943	2.474483674e-05	0
    CmPitch:	-0.0003697752548	-0.0008153588353	0.0004455835806	0
    CmRoll:	-0.1281975538	-0.1267227769	-0.001474776899	0
    CmYaw:	0.05112334824	0.02465153005	0.02647181819	0
    Cs:	-0.003727651829	-0.003867887755	0.0001402359258	0
    Cs(f):	0.04925952233	0.02271758618	0.02654193615	0
    Cs(r):	-0.05298717416	-0.02658547393	-0.02640170023	0

    writing force and moment coefficient files.

Time = 37

DILUPBiCGStab:  Solving for Ux, Initial residual = 0.0003181224932, Final residual = 1.537110351e-09, No Iterations 5
[...]
    CmPitch:	-0.00388238653	-0.004248585109	0.0003661985791	0
    CmRoll:	-0.06169789069	-0.06038351308	-0.001314377607	0
    CmYaw:	0.04980891413	0.02599549376	0.02381342036	0
    Cs:	-0.003665562518	-0.003840476068	0.0001749135499	0
    Cs(f):	0.04797613287	0.02407525573	0.02390087714	0
    Cs(r):	-0.05164169538	-0.0279157318	-0.02372596359	0

    writing force and moment coefficient files.

Time = 352

DILUPBiCGStab:  Solving for Ux, Initial residual = 1.057025713e-06, Final residual = 4.84770284e-13, No Iterations 5
DILUPBiCGStab:  Solving for Uy, Initial residual = 5.298923789e-06, Final residual = 2.020750113e-12, No Iterations 5
DILUPBiCGStab:  Solving for Uz, Initial residual = 1.076624701e-05, Final residual = 8.000801519e-12, No Iterations 5
GAMG:  Solving for p, Initial residual = 1.868242902e-05, Final residual = 4.466451801e-07, No Iterations 2
GAMG:  Solving for p, Initial residual = 2.332764896e-06, Final residual = 2.895916393e-07, No Iterations 1
GAMG:  Solving for p, Initial residual = 1.040661193e-06, Final residual = 1.376874274e-07, No Iterations 1
time step continuity errors : sum local = 5.085907943e-09, global = 1.422292898e-12, cumulative = -8.512464853e-09
ExecutionTime = 306.69 s  ClockTime = 307 s

forces forces_object write:
    Sum of forces
        Total    : (0.01928505388 0.02670154761 0.00219933896)
        Pressure : (0.01015315015 0.02620382782 0.002304286082)
        Viscous  : (0.009131903731 0.0004977197878 -0.0001049471215)
    Sum of moments
        Total    : (-0.003701968592 0.002988669378 0.000232884109)
        Pressure : (-0.00362304928 0.001559863273 0.0002548753451)
        Viscous  : (-7.891931149e-05 0.001428806105 -2.199123614e-05)
    writing force and moment files.

forceCoeffs forceCoeffs_object write:
    Coefficient	Total	Pressure	Viscous	Internal
    Cd:	0.03214175646	0.01692191691	0.01521983955	0
    Cd(f):	-0.0456285983	-0.05192319621	0.006294597918	0
    Cd(r):	0.07777035476	0.06884511313	0.008925241634	0
    Cl:	0.04450257935	0.04367304637	0.0008295329797	0
    Cl(f):	0.01836988786	0.01758860077	0.0007812870922	0
    Cl(r):	0.02613269149	0.02608444561	4.824588748e-05	0
    CmPitch:	-0.003881401816	-0.004247922418	0.0003665206024	0
    CmRoll:	-0.06169947653	-0.06038415467	-0.001315321858	0
    CmYaw:	0.0498111563	0.02599772122	0.02381343508	0
    Cs:	-0.003665564934	-0.003840476803	0.0001749118692	0
    Cs(f):	0.04797837383	0.02407748282	0.02390089101	0
    Cs(r):	-0.05164393876	-0.02791795962	-0.02372597914	0

    writing force and moment coefficient files.

Time = 353

DILUPBiCGStab:  Solving for Ux, Initial residual = 1.0540391e-06, Final residual = 4.248837244e-13, No Iterations 5
DILUPBiCGStab:  Solving for Uy, Initial residual = 5.291848533e-06, Final residual = 2.265763044e-12, No Iterations 5
DILUPBiCGStab:  Solving for Uz, Initial residual = 1.069081243e-05, Final residual = 8.851784254e-12, No Iterations 5
GAMG:  Solving for p, Initial residual = 1.867212259e-05, Final residual = 4.396312797e-07, No Iterations 2
GAMG:  Solving for p, Initial residual = 2.294640019e-06, Final residual = 2.945819257e-07, No Iterations 1
GAMG:  Solving for p, Initial residual = 1.056440503e-06, Final residual = 1.428075851e-07, No Iterations 1
time step continuity errors : sum local = 5.275078947e-09, global = 7.188021834e-12, cumulative = -8.505276831e-09
ExecutionTime = 307.42 s  ClockTime = 307 s

forces forces_object write:
    Sum of forces
        Total    : (0.01928415818 0.02670024493 0.002199336444)
        Pressure : (0.01015226702 0.02620290195 0.002304284788)
        Viscous  : (0.009131891154 0.0004973429878 -0.0001049483433)
    Sum of moments
        Total    : (-0.003701781056 0.002988534186 0.0002329479898)
        Pressure : (-0.003622918665 0.001559729277 0.0002549197774)
        Viscous  : (-7.886239085e-05 0.001428804909 -2.197178761e-05)
    writing force and moment files.

forceCoeffs forceCoeffs_object write:
    Coefficient	Total	Pressure	Viscous	Internal
    Cd:	0.03214026363	0.01692044504	0.01521981859	0
    Cd(f):	-0.04562621912	-0.05192175524	0.006295536114	0
    Cd(r):	0.07776648275	0.06884220028	0.008924282476	0
    Cl:	0.04450040822	0.04367150324	0.0008289049797	0
    Cl(f):	0.01836773762	0.01758708867	0.00078064895	0
    Cl(r):	0.02613267061	0.02608441458	4.825602969e-05	0
    CmPitch:	-0.003882466496	-0.004248662956	0.0003661964601	0
    CmRoll:	-0.06169635094	-0.06038197776	-0.001314373181	0
    CmYaw:	0.0498089031	0.02599548796	0.02381341515	0
    Cs:	-0.003665560741	-0.003840474646	0.0001749139055	0
    Cs(f):	0.04797612273	0.02407525063	0.0239008721	0
    Cs(r):	-0.05164168347	-0.02791572528	-0.02372595819	0

    writing force and moment coefficient files.

Time = 354

DILUPBiCGStab:  Solving for Ux, Initial residual = 1.051165002e-06, Final residual = 5.640702626e-13, No Iterations 5
DILUPBiCGStab:  Solving for Uy, Initial residual = 5.24429553e-06, Final residual = 2.499679996e-12, No Iterations 5
DILUPBiCGStab:  Solving for Uz, Initial residual = 1.051165391e-05, Final residual = 6.784948594e-12, No Iterations 5
GAMG:  Solving for p, Initial residual = 1.867966031e-05, Final residual = 4.450253964e-07, No Iterations 2
GAMG:  Solving for p, Initial residual = 2.331338181e-06, Final residual = 2.892845249e-07, No Iterations 1
GAMG:  Solving for p, Initial residual = 1.040078527e-06, Final residual = 1.374424704e-07, No Iterations 1
time step continuity errors : sum local = 5.07685783e-09, global = 1.074805706e-12, cumulative = -8.504202025e-09
ExecutionTime = 308.17 s  ClockTime = 308 s

forces forces_object write:
    Sum of forces
        Total    : (0.01928504909 0.02670089527 0.002199338189)
        Pressure : (0.01015314869 0.02620317728 0.002304285538)
        Viscous  : (0.009131900394 0.0004977179902 -0.0001049473493)
    Sum of moments
        Total    : (-0.003701875088 0.002988668783 0.0002328886933)
        Pressure : (-0.003622956031 0.001559862864 0.0002548798)
        Viscous  : (-7.891905795e-05 0.001428805919 -2.199110668e-05)
    writing force and moment files.

forceCoeffs forceCoeffs_object write:
    Coefficient	Total	Pressure	Viscous	Internal
    Cd:	0.03214174848	0.01692191449	0.01521983399	0
    Cd(f):	-0.0456270439	-0.05192164326	0.006294599362	0
    Cd(r):	0.07776879238	0.06884355775	0.008925234627	0
    Cl:	0.04450149211	0.04367196213	0.0008295299837	0
    Cl(f):	0.01836926783	0.0175879844	0.0007812834365	0
    Cl(r):	0.02613222428	0.02608397773	4.824654713e-05	0
    CmPitch:	-0.003881478222	-0.004247996667	0.0003665184447	0
    CmRoll:	-0.06169791814	-0.06038260051	-0.001315317633	0
    CmYaw:	0.04981114638	0.02599771439	0.02381343199	0
    Cs:	-0.003665563648	-0.003840475897	0.0001749122488	0
    Cs(f):	0.04797836456	0.02407747644	0.02390088811	0
    Cs(r):	-0.05164392821	-0.02791795234	-0.02372597586	0

    writing force and moment coefficient files.

Time = 355

DILUPBiCGStab:  Solving for Ux, Initial residual = 1.045168688e-06, Final residual = 4.415051654e-13, No Iterations 5
DILUPBiCGStab:  Solving for Uy, Initial residual = 5.239062472e-06, Final residual = 2.648893215e-12, No Iterations 5
DILUPBiCGStab:  Solving for Uz, Initial residual = 1.050182149e-05, Final residual = 8.766729385e-12, No Iterations 5
GAMG:  Solving for p, Initial residual = 1.862197015e-05, Final residual = 4.38262467e-07, No Iterations 2
GAMG:  Solving for p, Initial residual = 2.29387979e-06, Final residual = 2.938188234e-07, No Iterations 1
GAMG:  Solving for p, Initial residual = 1.057118612e-06, Final residual = 1.423076575e-07, No Iterations 1
time step continuity errors : sum local = 5.256610348e-09, global = 4.310237058e-12, cumulative = -8.499891788e-09
ExecutionTime = 308.92 s  ClockTime = 309 s

forces forces_object write:
    Sum of forces
        Total    : (0.01928415357 0.02669960302 0.002199335803)
        Pressure : (0.01015226543 0.02620226141 0.002304284378)
        Viscous  : (0.009131888137 0.0004973416033 -0.0001049485749)
    Sum of moments
        Total    : (-0.003701688922 0.002988533592 0.0002329525711)
        Pressure : (-0.003622826681 0.001559728799 0.0002549242479)
        Viscous  : (-7.886224165e-05 0.001428804793 -2.197167683e-05)
    writing force and moment files.

forceCoeffs forceCoeffs_object write:
    Coefficient	Total	Pressure	Viscous	Internal
    Cd:	0.03214025594	0.01692044238	0.01521981356	0
    Cd(f):	-0.0456246874	-0.05192022349	0.006295536086	0
    Cd(r):	0.07776494334	0.06884066587	0.008924277475	0
    Cl:	0.04449933836	0.04367043569	0.0008289026722	0
    Cl(f):	0.01836712633	0.01758648038	0.00078064595	0
    Cl(r):	0.02613221203	0.02608395531	4.82567222e-05	0
    CmPitch:	-0.003882542852	-0.004248737465	0.0003661946139	0
    CmRoll:	-0.06169481537	-0.06038044468	-0.001314370694	0
    CmYaw:	0.0498088932	0.02599547998	0.02381341322	0
    Cs:	-0.003665559671	-0.003840473963	0.0001749142914	0
    Cs(f):	0.04797611337	0.024075243	0.02390087037	0
    Cs(r):	-0.05164167304	-0.02791571696	-0.02372595607	0

    writing force and moment coefficient files.

Time = 356

DILUPBiCGStab:  Solving for Ux, Initial residual = 1.042542223e-06, Final residual = 5.516701935e-13, No Iterations 5
DILUPBiCGStab:  Solving for Uy, Initial residual = 5.191387129e-06, Final residual = 3.125479338e-12, No Iterations 5
DILUPBiCGStab:  Solving for Uz, Initial residual = 1.034792462e-05, Final residual = 6.297491946e-12, No Iterations 5
GAMG:  Solving for p, Initial residual = 1.858808775e-05, Final residual = 4.436190109e-07, No Iterations 2
GAMG:  Solving for p, Initial residual = 2.328749389e-06, Final residual = 2.884123132e-07, No Iterations 1
GAMG:  Solving for p, Initial residual = 1.038615231e-06, Final residual = 1.370037186e-07, No Iterations 1
time step continuity errors : sum local = 5.060648949e-09, global = -1.322744172e-12, cumulative = -8.501214533e-09
ExecutionTime = 309.7 s  ClockTime = 310 s

forces forces_object write:
    Sum of forces
        Total    : (0.0192850445 0.02670027647 0.002199337559)
        Pressure : (0.01015314698 0.02620255963 0.002304285126)
        Viscous  : (0.009131897526 0.0004977168424 -0.0001049475669)
    Sum of moments
        Total    : (-0.003701787478 0.002988668166 0.000232892888)
        Pressure : (-0.00362286851 0.001559862365 0.0002548838964)
        Viscous  : (-7.891896826e-05 0.001428805801 -2.19910084e-05)
    writing force and moment files.

forceCoeffs forceCoeffs_object write:
    Coefficient	Total	Pressure	Viscous	Internal
    Cd:	0.03214174084	0.01692191163	0.01521982921	0
    Cd(f):	-0.04562558755	-0.05192018602	0.006294598467	0
    Cd(r):	0.07776732839	0.06884209765	0.008925230742	0
    Cl:	0.04450046079	0.04367093272	0.0008295280707	0
    Cl(f):	0.01836868226	0.01758740142	0.0007812808421	0
    Cl(r):	0.02613177853	0.0260835313	4.824722863e-05	0
    CmPitch:	-0.003881548134	-0.004248064941	0.0003665168067	0
    CmRoll:	-0.06169645797	-0.06038114183	-0.001315316138	0
    CmYaw:	0.0498111361	0.02599770608	0.02381343001	0
    Cs:	-0.003665562599	-0.003840475211	0.0001749126114	0
    Cs(f):	0.0479783548	0.02407746848	0.02390088632	0
    Cs(r):	-0.0516439174	-0.02791794369	-0.02372597371	0

    writing force and moment coefficient files.

Time = 357

DILUPBiCGStab:  Solving for Ux, Initial residual = 1.038297971e-06, Final residual = 3.968781458e-13, No Iterations 5
DILUPBiCGStab:  Solving for Uy, Initial residual = 5.183071386e-06, Final residual = 2.681440429e-12, No Iterations 5
DILUPBiCGStab:  Solving for Uz, Initial residual = 1.031058938e-05, Final residual = 8.276918975e-12, No Iterations 5
GAMG:  Solving for p, Initial residual = 1.852649886e-05, Final residual = 4.36136229e-07, No Iterations 2
GAMG:  Solving for p, Initial residual = 2.29003575e-06, Final residual = 2.928549188e-07, No Iterations 1
GAMG:  Solving for p, Initial residual = 1.055795137e-06, Final residual = 1.416085412e-07, No Iterations 1
time step continuity errors : sum local = 5.230783859e-09, global = 4.875517017e-12, cumulative = -8.496339016e-09
ExecutionTime = 310.41 s  ClockTime = 310 s

forces forces_object write:
    Sum of forces
        Total    : (0.0192841489 0.02669899695 0.002199335062)
        Pressure : (0.0101522636 0.02620165629 0.002304283878)
        Viscous  : (0.009131885304 0.0004973406577 -0.0001049488164)
    Sum of moments
        Total    : (-0.003701604263 0.002988532938 0.0002329562472)
        Pressure : (-0.003622742065 0.001559728317 0.0002549278403)
        Viscous  : (-7.88621985e-05 0.001428804621 -2.197159311e-05)
    writing force and moment files.

forceCoeffs forceCoeffs_object write:
    Coefficient	Total	Pressure	Viscous	Internal
    Cd:	0.03214024817	0.01692043933	0.01521980884	0
    Cd(f):	-0.0456232803	-0.05191881474	0.006295534445	0
    Cd(r):	0.07776352847	0.06883925408	0.008924274395	0
    Cl:	0.04449832825	0.04366942716	0.0008289010962	0
    Cl(f):	0.01836656001	0.01758591624	0.0007806437666	0
    Cl(r):	0.02613176825	0.02608351092	4.82573296e-05	0
    CmPitch:	-0.00388260412	-0.004248797338	0.0003661932185	0
    CmRoll:	-0.06169340439	-0.06037903441	-0.001314369975	0
    CmYaw:	0.0498088823	0.02599547194	0.02381341036	0
    Cs:	-0.003665558436	-0.00384047313	0.000174914694	0
    Cs(f):	0.04797610308	0.02407523538	0.0239008677	0
    Cs(r):	-0.05164166152	-0.02791570851	-0.02372595301	0

    writing force and moment coefficient files.

Time = 358

DILUPBiCGStab:  Solving for Ux, Initial residual = 1.037075225e-06, Final residual = 4.511149876e-13, No Iterations 5
DILUPBiCGStab:  Solving for Uy, Initial residual = 5.132596698e-06, Final residual = 2.272634143e-12, No Iterations 5
DILUPBiCGStab:  Solving for Uz, Initial residual = 1.011615931e-05, Final residual = 6.07640062e-12, No Iterations 5
GAMG:  Solving for p, Initial residual = 1.849939347e-05, Final residual = 4.428215435e-07, No Iterations 2
GAMG:  Solving for p, Initial residual = 2.326142221e-06, Final residual = 2.875105109e-07, No Iterations 1
GAMG:  Solving for p, Initial residual = 1.038420344e-06, Final residual = 1.36377936e-07, No Iterations 1
time step continuity errors : sum local = 5.037531661e-09, global = 1.258861853e-12, cumulative = -8.495080154e-09
ExecutionTime = 311.22 s  ClockTime = 311 s

forces forces_object write:
    Sum of forces
        Total    : (0.0192850389 0.02669966324 0.00219933662)
        Pressure : (0.0101531443 0.02620194747 0.002304284475)
        Viscous  : (0.009131894593 0.0004977157722 -0.0001049478543)
    Sum of moments
        Total    : (-0.003701702137 0.002988667288 0.0002328963082)
        Pressure : (-0.003622783251 0.001559861746 0.0002548872321)
        Viscous  : (-7.89188857e-05 0.001428805542 -2.199092386e-05)
    writing force and moment files.

forceCoeffs forceCoeffs_object write:
    Coefficient	Total	Pressure	Viscous	Internal
    Cd:	0.03214173149	0.01692190717	0.01521982432	0
    Cd(f):	-0.04562416987	-0.05191876727	0.0062945974	0
    Cd(r):	0.07776590137	0.06884067444	0.008925226923	0
    Cl:	0.04449943873	0.04366991245	0.000829526287	0
    Cl(f):	0.01836811423	0.01758683569	0.0007812785412	0
    Cl(r):	0.0261313245	0.02608307676	4.824774575e-05	0
    CmPitch:	-0.003881605136	-0.004248120534	0.0003665153977	0
    CmRoll:	-0.06169503562	-0.06037972086	-0.001315314762	0
    CmYaw:	0.04981112147	0.02599769577	0.0238134257	0
    Cs:	-0.003665561034	-0.003840474125	0.0001749130905	0
    Cs(f):	0.04797834095	0.02407745871	0.02390088224	0
    Cs(r):	-0.05164390199	-0.02791793283	-0.02372596915	0

    writing force and moment coefficient files.

Time = 359

DILUPBiCGStab:  Solving for Ux, Initial residual = 1.03184822e-06, Final residual = 3.307510914e-13, No Iterations 5
DILUPBiCGStab:  Solving for Uy, Initial residual = 5.129312096e-06, Final residual = 2.387325258e-12, No Iterations 5
DILUPBiCGStab:  Solving for Uz, Initial residual = 1.007793731e-05, Final residual = 8.406546424e-12, No Iterations 5
GAMG:  Solving for p, Initial residual = 1.842738285e-05, Final residual = 4.342732955e-07, No Iterations 2
GAMG:  Solving for p, Initial residual = 2.283004772e-06, Final residual = 2.923573337e-07, No Iterations 1
GAMG:  Solving for p, Initial residual = 1.054947448e-06, Final residual = 1.415682293e-07, No Iterations 1
time step continuity errors : sum local = 5.229292378e-09, global = 6.221995856e-12, cumulative = -8.488858158e-09
ExecutionTime = 312.02 s  ClockTime = 312 s

forces forces_object write:
    Sum of forces
        Total    : (0.01928414281 0.02669837819 0.00219933401)
        Pressure : (0.01015226066 0.02620103863 0.002304283127)
        Viscous  : (0.009131882148 0.0004973395594 -0.0001049491165)
    Sum of moments
        Total    : (-0.003701518696 0.002988531933 0.0002329594892)
        Pressure : (-0.003622656602 0.001559727674 0.0002549310005)
        Viscous  : (-7.886209405e-05 0.001428804259 -2.197151136e-05)
    writing force and moment files.

forceCoeffs forceCoeffs_object write:
    Coefficient	Total	Pressure	Viscous	Internal
    Cd:	0.03214023802	0.01692043444	0.01521980358	0
    Cd(f):	-0.04562185927	-0.05191739282	0.006295533555	0
    Cd(r):	0.07776209728	0.06883782726	0.008924270024	0
    Cl:	0.04449729699	0.04366839772	0.0008288992657	0
    Cl(f):	0.01836599034	0.01758534885	0.0007806414889	0
    Cl(r):	0.02613130665	0.02608304887	4.825777681e-05	0
    CmPitch:	-0.003882658153	-0.004248850009	0.000366191856	0
    CmRoll:	-0.06169197827	-0.06037761004	-0.001314368234	0
    CmYaw:	0.04980886555	0.02599546123	0.02381340431	0
    Cs:	-0.003665556684	-0.003840471878	0.0001749151942	0
    Cs(f):	0.04797608721	0.0240752253	0.02390086191	0
    Cs(r):	-0.05164164389	-0.02791569717	-0.02372594672	0

    writing force and moment coefficient files.

Time = 360

DILUPBiCGStab:  Solving for Ux, Initial residual = 1.032205841e-06, Final residual = 3.508717607e-13, No Iterations 5
DILUPBiCGStab:  Solving for Uy, Initial residual = 5.08627132e-06, Final residual = 1.728121946e-12, No Iterations 5
DILUPBiCGStab:  Solving for Uz, Initial residual = 9.897784905e-06, Final residual = 5.561062966e-12, No Iterations 5
GAMG:  Solving for p, Initial residual = 1.840425874e-05, Final residual = 4.407775148e-07, No Iterations 2
GAMG:  Solving for p, Initial residual = 2.313011275e-06, Final residual = 2.865259198e-07, No Iterations 1
GAMG:  Solving for p, Initial residual = 1.036924074e-06, Final residual = 1.359602237e-07, No Iterations 1
time step continuity errors : sum local = 5.022099746e-09, global = -5.113052917e-13, cumulative = -8.489369463e-09
ExecutionTime = 312.76 s  ClockTime = 313 s


SIMPLE solution converged in 360 iterations

forces forces_object write:
    Sum of forces
        Total    : (0.01928503185 0.02669905003 0.00219933562)
        Pressure : (0.01015314069 0.02620133534 0.002304283759)
        Viscous  : (0.009131891167 0.000497714684 -0.0001049481388)
    Sum of moments
        Total    : (-0.003701617577 0.002988666034 0.0002328996153)
        Pressure : (-0.003622698809 0.001559860958 0.0002548904595)
        Viscous  : (-7.891876809e-05 0.001428805075 -2.199084423e-05)
    writing force and moment files.

forceCoeffs forceCoeffs_object write:
    Coefficient	Total	Pressure	Viscous	Internal
    Cd:	0.03214171976	0.01692190114	0.01521981861	0
    Cd(f):	-0.0456227664	-0.05191736291	0.006294596504	0
    Cd(r):	0.07776448616	0.06883926405	0.008925222107	0
    Cl:	0.04449841671	0.04366889224	0.0008295244733	0
    Cl(f):	0.0183675481	0.01758627179	0.0007812763071	0
    Cl(r):	0.02613086861	0.02608262044	4.82481662e-05	0
    CmPitch:	-0.003881660255	-0.004248174325	0.0003665140705	0
    CmRoll:	-0.06169362628	-0.06037831348	-0.001315312801	0
    CmYaw:	0.04981110056	0.02599768264	0.02381341792	0
    Cs:	-0.003665559366	-0.003840472931	0.0001749135647	0
    Cs(f):	0.04797832088	0.02407744618	0.0239008747	0
    Cs(r):	-0.05164388025	-0.02791791911	-0.02372596114	0

    writing force and moment coefficient files.

End

Finalising parallel run
