SUMMARY OF JOB INFORMATION
  STEP      INC     ATT  ITRS     TOT TIME     STEP TIME      INC TIME
     1          1     1     2  0.500000E-01  0.500000E-01  0.500000E-01
     1          2     1     2  0.100000E+00  0.100000E+00  0.500000E-01
     1          3     1     2  0.150000E+00  0.150000E+00  0.500000E-01
     1          4     1     2  0.200000E+00  0.200000E+00  0.500000E-01
     1          5     1     2  0.250000E+00  0.250000E+00  0.500000E-01
     1          6     1     2  0.300000E+00  0.300000E+00  0.500000E-01
     1          7     1     2  0.350000E+00  0.350000E+00  0.500000E-01
     1          8     1     2  0.400000E+00  0.400000E+00  0.500000E-01
     1          9     1     2  0.450000E+00  0.450000E+00  0.500000E-01
     1         10     1     2  0.500000E+00  0.500000E+00  0.500000E-01
     1         11     1     2  0.550000E+00  0.550000E+00  0.500000E-01
     1         12     1     2  0.600000E+00  0.600000E+00  0.500000E-01
     1         13     1     2  0.650000E+00  0.650000E+00  0.500000E-01
     1         14     1     2  0.700000E+00  0.700000E+00  0.500000E-01
     1         15     1     2  0.750000E+00  0.750000E+00  0.500000E-01
     1         16     1     2  0.800000E+00  0.800000E+00  0.500000E-01
     1         17     1     2  0.850000E+00  0.850000E+00  0.500000E-01
     1         18     1     2  0.900000E+00  0.900000E+00  0.500000E-01
     1         19     1     2  0.950000E+00  0.950000E+00  0.500000E-01
     1         20     1     2  0.100000E+01  0.100000E+01  0.500000E-01
     1         21     1     2  0.105000E+01  0.105000E+01  0.500000E-01
     1         22     1     2  0.110000E+01  0.110000E+01  0.500000E-01
     1         23     1     2  0.115000E+01  0.115000E+01  0.500000E-01
     1         24     1     2  0.120000E+01  0.120000E+01  0.500000E-01
     1         25     1     2  0.125000E+01  0.125000E+01  0.500000E-01
     1         26     1     2  0.130000E+01  0.130000E+01  0.500000E-01
     1         27     1     2  0.135000E+01  0.135000E+01  0.500000E-01
     1         28     1     2  0.140000E+01  0.140000E+01  0.500000E-01
     1         29     1     2  0.145000E+01  0.145000E+01  0.500000E-01
     1         30     1     2  0.150000E+01  0.150000E+01  0.500000E-01
     1         31     1     2  0.155000E+01  0.155000E+01  0.500000E-01
     1         32     1     2  0.160000E+01  0.160000E+01  0.500000E-01
     1         33     1     2  0.165000E+01  0.165000E+01  0.500000E-01
     1         34     1     2  0.170000E+01  0.170000E+01  0.500000E-01
     1         35     1     2  0.175000E+01  0.175000E+01  0.500000E-01
     1         36     1     2  0.180000E+01  0.180000E+01  0.500000E-01
     1         37     1     2  0.185000E+01  0.185000E+01  0.500000E-01
     1         38     1     2  0.190000E+01  0.190000E+01  0.500000E-01
     1         39     1     2  0.195000E+01  0.195000E+01  0.500000E-01
     1         40     1     2  0.200000E+01  0.200000E+01  0.500000E-01
     1         41     1     2  0.205000E+01  0.205000E+01  0.500000E-01
     1         42     1     2  0.210000E+01  0.210000E+01  0.500000E-01
     1         43     1     2  0.215000E+01  0.215000E+01  0.500000E-01
     1         44     1     2  0.220000E+01  0.220000E+01  0.500000E-01
     1         45     1     2  0.225000E+01  0.225000E+01  0.500000E-01
     1         46     1     2  0.230000E+01  0.230000E+01  0.500000E-01
     1         47     1     2  0.235000E+01  0.235000E+01  0.500000E-01
     1         48     1     2  0.240000E+01  0.240000E+01  0.500000E-01
     1         49     1     2  0.245000E+01  0.245000E+01  0.500000E-01
     1         50     1     2  0.250000E+01  0.250000E+01  0.500000E-01
     1         51     1     2  0.255000E+01  0.255000E+01  0.500000E-01
     1         52     1     2  0.260000E+01  0.260000E+01  0.500000E-01
     1         53     1     2  0.265000E+01  0.265000E+01  0.500000E-01
     1         54     1     2  0.270000E+01  0.270000E+01  0.500000E-01
     1         55     1     2  0.275000E+01  0.275000E+01  0.500000E-01
     1         56     1     2  0.280000E+01  0.280000E+01  0.500000E-01
     1         57     1     2  0.285000E+01  0.285000E+01  0.500000E-01
     1         58     1     2  0.290000E+01  0.290000E+01  0.500000E-01
     1         59     1     2  0.295000E+01  0.295000E+01  0.500000E-01
     1         60     1     2  0.300000E+01  0.300000E+01  0.500000E-01
     1         61     1     2  0.305000E+01  0.305000E+01  0.500000E-01
     1         62     1     2  0.310000E+01  0.310000E+01  0.500000E-01
     1         63     1     2  0.315000E+01  0.315000E+01  0.500000E-01
     1         64     1     2  0.320000E+01  0.320000E+01  0.500000E-01
     1         65     1     2  0.325000E+01  0.325000E+01  0.500000E-01
     1         66     1     2  0.330000E+01  0.330000E+01  0.500000E-01
     1         67     1     2  0.335000E+01  0.335000E+01  0.500000E-01
     1         68     1     2  0.340000E+01  0.340000E+01  0.500000E-01
     1         69     1     2  0.345000E+01  0.345000E+01  0.500000E-01
     1         70     1     2  0.350000E+01  0.350000E+01  0.500000E-01
     1         71     1     2  0.355000E+01  0.355000E+01  0.500000E-01
     1         72     1     2  0.360000E+01  0.360000E+01  0.500000E-01
     1         73     1     2  0.365000E+01  0.365000E+01  0.500000E-01
     1         74     1     2  0.370000E+01  0.370000E+01  0.500000E-01
     1         75     1     2  0.375000E+01  0.375000E+01  0.500000E-01
     1         76     1     2  0.380000E+01  0.380000E+01  0.500000E-01
     1         77     1     2  0.385000E+01  0.385000E+01  0.500000E-01
     1         78     1     2  0.390000E+01  0.390000E+01  0.500000E-01
     1         79     1     2  0.395000E+01  0.395000E+01  0.500000E-01
     1         80     1     2  0.400000E+01  0.400000E+01  0.500000E-01
