SUMMARY OF JOB INFORMATION
  STEP      INC     ATT  ITRS     TOT TIME     STEP TIME      INC TIME
     1          1     1     2  0.100000E-01  0.100000E-01  0.100000E-01
     1          2     1     2  0.200000E-01  0.200000E-01  0.100000E-01
     1          3     1     2  0.300000E-01  0.300000E-01  0.100000E-01
     1          4     1     2  0.400000E-01  0.400000E-01  0.100000E-01
     1          5     1     2  0.500000E-01  0.500000E-01  0.100000E-01
     1          6     1     2  0.600000E-01  0.600000E-01  0.100000E-01
     1          7     1     2  0.700000E-01  0.700000E-01  0.100000E-01
     1          8     1     2  0.800000E-01  0.800000E-01  0.100000E-01
     1          9     1     2  0.900000E-01  0.900000E-01  0.100000E-01
     1         10     1     2  0.100000E+00  0.100000E+00  0.100000E-01
     1         11     1     2  0.110000E+00  0.110000E+00  0.100000E-01
     1         12     1     2  0.120000E+00  0.120000E+00  0.100000E-01
     1         13     1     2  0.130000E+00  0.130000E+00  0.100000E-01
     1         14     1     2  0.140000E+00  0.140000E+00  0.100000E-01
     1         15     1     2  0.150000E+00  0.150000E+00  0.100000E-01
     1         16     1     2  0.160000E+00  0.160000E+00  0.100000E-01
     1         17     1     2  0.170000E+00  0.170000E+00  0.100000E-01
     1         18     1     2  0.180000E+00  0.180000E+00  0.100000E-01
     1         19     1     2  0.190000E+00  0.190000E+00  0.100000E-01
     1         20     1     2  0.200000E+00  0.200000E+00  0.100000E-01
     1         21     1     2  0.210000E+00  0.210000E+00  0.100000E-01
     1         22     1     2  0.220000E+00  0.220000E+00  0.100000E-01
     1         23     1     2  0.230000E+00  0.230000E+00  0.100000E-01
     1         24     1     2  0.240000E+00  0.240000E+00  0.100000E-01
     1         25     1     2  0.250000E+00  0.250000E+00  0.100000E-01
     1         26     1     2  0.260000E+00  0.260000E+00  0.100000E-01
     1         27     1     2  0.270000E+00  0.270000E+00  0.100000E-01
     1         28     1     2  0.280000E+00  0.280000E+00  0.100000E-01
     1         29     1     2  0.290000E+00  0.290000E+00  0.100000E-01
     1         30     1     2  0.300000E+00  0.300000E+00  0.100000E-01
     1         31     1     2  0.310000E+00  0.310000E+00  0.100000E-01
     1         32     1     2  0.320000E+00  0.320000E+00  0.100000E-01
     1         33     1     2  0.330000E+00  0.330000E+00  0.100000E-01
     1         34     1     2  0.340000E+00  0.340000E+00  0.100000E-01
     1         35     1     2  0.350000E+00  0.350000E+00  0.100000E-01
     1         36     1     2  0.360000E+00  0.360000E+00  0.100000E-01
     1         37     1     2  0.370000E+00  0.370000E+00  0.100000E-01
     1         38     1     2  0.380000E+00  0.380000E+00  0.100000E-01
     1         39     1     2  0.390000E+00  0.390000E+00  0.100000E-01
     1         40     1     2  0.400000E+00  0.400000E+00  0.100000E-01
     1         41     1     2  0.410000E+00  0.410000E+00  0.100000E-01
     1         42     1     2  0.420000E+00  0.420000E+00  0.100000E-01
     1         43     1     2  0.430000E+00  0.430000E+00  0.100000E-01
     1         44     1     2  0.440000E+00  0.440000E+00  0.100000E-01
     1         45     1     2  0.450000E+00  0.450000E+00  0.100000E-01
     1         46     1     2  0.460000E+00  0.460000E+00  0.100000E-01
     1         47     1     2  0.470000E+00  0.470000E+00  0.100000E-01
     1         48     1     2  0.480000E+00  0.480000E+00  0.100000E-01
     1         49     1     2  0.490000E+00  0.490000E+00  0.100000E-01
     1         50     1     2  0.500000E+00  0.500000E+00  0.100000E-01
     1         51     1     2  0.510000E+00  0.510000E+00  0.100000E-01
     1         52     1     2  0.520000E+00  0.520000E+00  0.100000E-01
     1         53     1     2  0.530000E+00  0.530000E+00  0.100000E-01
     1         54     1     2  0.540000E+00  0.540000E+00  0.100000E-01
     1         55     1     2  0.550000E+00  0.550000E+00  0.100000E-01
     1         56     1     2  0.560000E+00  0.560000E+00  0.100000E-01
     1         57     1     2  0.570000E+00  0.570000E+00  0.100000E-01
     1         58     1     2  0.580000E+00  0.580000E+00  0.100000E-01
     1         59     1     2  0.590000E+00  0.590000E+00  0.100000E-01
     1         60     1     2  0.600000E+00  0.600000E+00  0.100000E-01
     1         61     1     2  0.610000E+00  0.610000E+00  0.100000E-01
     1         62     1     2  0.620000E+00  0.620000E+00  0.100000E-01
     1         63     1     2  0.630000E+00  0.630000E+00  0.100000E-01
     1         64     1     2  0.640000E+00  0.640000E+00  0.100000E-01
     1         65     1     2  0.650000E+00  0.650000E+00  0.100000E-01
     1         66     1     2  0.660000E+00  0.660000E+00  0.100000E-01
     1         67     1     2  0.670000E+00  0.670000E+00  0.100000E-01
     1         68     1     2  0.680000E+00  0.680000E+00  0.100000E-01
     1         69     1     2  0.690000E+00  0.690000E+00  0.100000E-01
     1         70     1     2  0.700000E+00  0.700000E+00  0.100000E-01
     1         71     1     2  0.710000E+00  0.710000E+00  0.100000E-01
     1         72     1     2  0.720000E+00  0.720000E+00  0.100000E-01
     1         73     1     2  0.730000E+00  0.730000E+00  0.100000E-01
     1         74     1     2  0.740000E+00  0.740000E+00  0.100000E-01
     1         75     1     2  0.750000E+00  0.750000E+00  0.100000E-01
     1         76     1     2  0.760000E+00  0.760000E+00  0.100000E-01
     1         77     1     2  0.770000E+00  0.770000E+00  0.100000E-01
     1         78     1     2  0.780000E+00  0.780000E+00  0.100000E-01
     1         79     1     2  0.790000E+00  0.790000E+00  0.100000E-01
     1         80     1     2  0.800000E+00  0.800000E+00  0.100000E-01
     1         81     1     2  0.810000E+00  0.810000E+00  0.100000E-01
     1         82     1     2  0.820000E+00  0.820000E+00  0.100000E-01
     1         83     1     2  0.830000E+00  0.830000E+00  0.100000E-01
     1         84     1     2  0.840000E+00  0.840000E+00  0.100000E-01
     1         85     1     2  0.850000E+00  0.850000E+00  0.100000E-01
     1         86     1     2  0.860000E+00  0.860000E+00  0.100000E-01
     1         87     1     2  0.870000E+00  0.870000E+00  0.100000E-01
     1         88     1     2  0.880000E+00  0.880000E+00  0.100000E-01
     1         89     1     2  0.890000E+00  0.890000E+00  0.100000E-01
     1         90     1     2  0.900000E+00  0.900000E+00  0.100000E-01
     1         91     1     2  0.910000E+00  0.910000E+00  0.100000E-01
     1         92     1     2  0.920000E+00  0.920000E+00  0.100000E-01
     1         93     1     2  0.930000E+00  0.930000E+00  0.100000E-01
     1         94     1     2  0.940000E+00  0.940000E+00  0.100000E-01
     1         95     1     2  0.950000E+00  0.950000E+00  0.100000E-01
     1         96     1     2  0.960000E+00  0.960000E+00  0.100000E-01
     1         97     1     2  0.970000E+00  0.970000E+00  0.100000E-01
     1         98     1     2  0.980000E+00  0.980000E+00  0.100000E-01
     1         99     1     2  0.990000E+00  0.990000E+00  0.100000E-01
     1        100     1     2  0.100000E+01  0.100000E+01  0.100000E-01
     1        101     1     2  0.101000E+01  0.101000E+01  0.100000E-01
     1        102     1     2  0.102000E+01  0.102000E+01  0.100000E-01
     1        103     1     2  0.103000E+01  0.103000E+01  0.100000E-01
     1        104     1     2  0.104000E+01  0.104000E+01  0.100000E-01
     1        105     1     2  0.105000E+01  0.105000E+01  0.100000E-01
     1        106     1     2  0.106000E+01  0.106000E+01  0.100000E-01
     1        107     1     2  0.107000E+01  0.107000E+01  0.100000E-01
     1        108     1     2  0.108000E+01  0.108000E+01  0.100000E-01
     1        109     1     2  0.109000E+01  0.109000E+01  0.100000E-01
     1        110     1     2  0.110000E+01  0.110000E+01  0.100000E-01
     1        111     1     2  0.111000E+01  0.111000E+01  0.100000E-01
     1        112     1     2  0.112000E+01  0.112000E+01  0.100000E-01
     1        113     1     2  0.113000E+01  0.113000E+01  0.100000E-01
     1        114     1     2  0.114000E+01  0.114000E+01  0.100000E-01
     1        115     1     2  0.115000E+01  0.115000E+01  0.100000E-01
     1        116     1     2  0.116000E+01  0.116000E+01  0.100000E-01
     1        117     1     2  0.117000E+01  0.117000E+01  0.100000E-01
     1        118     1     2  0.118000E+01  0.118000E+01  0.100000E-01
     1        119     1     2  0.119000E+01  0.119000E+01  0.100000E-01
     1        120     1     2  0.120000E+01  0.120000E+01  0.100000E-01
     1        121     1     2  0.121000E+01  0.121000E+01  0.100000E-01
     1        122     1     2  0.122000E+01  0.122000E+01  0.100000E-01
     1        123     1     2  0.123000E+01  0.123000E+01  0.100000E-01
     1        124     1     2  0.124000E+01  0.124000E+01  0.100000E-01
     1        125     1     2  0.125000E+01  0.125000E+01  0.100000E-01
     1        126     1     2  0.126000E+01  0.126000E+01  0.100000E-01
     1        127     1     2  0.127000E+01  0.127000E+01  0.100000E-01
     1        128     1     2  0.128000E+01  0.128000E+01  0.100000E-01
     1        129     1     2  0.129000E+01  0.129000E+01  0.100000E-01
     1        130     1     2  0.130000E+01  0.130000E+01  0.100000E-01
     1        131     1     2  0.131000E+01  0.131000E+01  0.100000E-01
     1        132     1     2  0.132000E+01  0.132000E+01  0.100000E-01
     1        133     1     2  0.133000E+01  0.133000E+01  0.100000E-01
     1        134     1     2  0.134000E+01  0.134000E+01  0.100000E-01
     1        135     1     2  0.135000E+01  0.135000E+01  0.100000E-01
     1        136     1     2  0.136000E+01  0.136000E+01  0.100000E-01
     1        137     1     2  0.137000E+01  0.137000E+01  0.100000E-01
     1        138     1     2  0.138000E+01  0.138000E+01  0.100000E-01
     1        139     1     2  0.139000E+01  0.139000E+01  0.100000E-01
     1        140     1     2  0.140000E+01  0.140000E+01  0.100000E-01
     1        141     1     2  0.141000E+01  0.141000E+01  0.100000E-01
     1        142     1     2  0.142000E+01  0.142000E+01  0.100000E-01
     1        143     1     2  0.143000E+01  0.143000E+01  0.100000E-01
     1        144     1     2  0.144000E+01  0.144000E+01  0.100000E-01
     1        145     1     2  0.145000E+01  0.145000E+01  0.100000E-01
     1        146     1     2  0.146000E+01  0.146000E+01  0.100000E-01
     1        147     1     2  0.147000E+01  0.147000E+01  0.100000E-01
     1        148     1     2  0.148000E+01  0.148000E+01  0.100000E-01
     1        149     1     2  0.149000E+01  0.149000E+01  0.100000E-01
     1        150     1     2  0.150000E+01  0.150000E+01  0.100000E-01
     1        151     1     2  0.151000E+01  0.151000E+01  0.100000E-01
     1        152     1     2  0.152000E+01  0.152000E+01  0.100000E-01
     1        153     1     2  0.153000E+01  0.153000E+01  0.100000E-01
     1        154     1     2  0.154000E+01  0.154000E+01  0.100000E-01
     1        155     1     2  0.155000E+01  0.155000E+01  0.100000E-01
     1        156     1     2  0.156000E+01  0.156000E+01  0.100000E-01
     1        157     1     2  0.157000E+01  0.157000E+01  0.100000E-01
     1        158     1     2  0.158000E+01  0.158000E+01  0.100000E-01
     1        159     1     2  0.159000E+01  0.159000E+01  0.100000E-01
     1        160     1     2  0.160000E+01  0.160000E+01  0.100000E-01
     1        161     1     2  0.161000E+01  0.161000E+01  0.100000E-01
     1        162     1     2  0.162000E+01  0.162000E+01  0.100000E-01
     1        163     1     2  0.163000E+01  0.163000E+01  0.100000E-01
     1        164     1     2  0.164000E+01  0.164000E+01  0.100000E-01
     1        165     1     2  0.165000E+01  0.165000E+01  0.100000E-01
     1        166     1     2  0.166000E+01  0.166000E+01  0.100000E-01
     1        167     1     2  0.167000E+01  0.167000E+01  0.100000E-01
     1        168     1     2  0.168000E+01  0.168000E+01  0.100000E-01
     1        169     1     2  0.169000E+01  0.169000E+01  0.100000E-01
     1        170     1     2  0.170000E+01  0.170000E+01  0.100000E-01
     1        171     1     2  0.171000E+01  0.171000E+01  0.100000E-01
     1        172     1     2  0.172000E+01  0.172000E+01  0.100000E-01
     1        173     1     2  0.173000E+01  0.173000E+01  0.100000E-01
     1        174     1     2  0.174000E+01  0.174000E+01  0.100000E-01
     1        175     1     2  0.175000E+01  0.175000E+01  0.100000E-01
     1        176     1     2  0.176000E+01  0.176000E+01  0.100000E-01
     1        177     1     2  0.177000E+01  0.177000E+01  0.100000E-01
     1        178     1     2  0.178000E+01  0.178000E+01  0.100000E-01
     1        179     1     2  0.179000E+01  0.179000E+01  0.100000E-01
     1        180     1     2  0.180000E+01  0.180000E+01  0.100000E-01
     1        181     1     2  0.181000E+01  0.181000E+01  0.100000E-01
     1        182     1     2  0.182000E+01  0.182000E+01  0.100000E-01
     1        183     1     2  0.183000E+01  0.183000E+01  0.100000E-01
     1        184     1     2  0.184000E+01  0.184000E+01  0.100000E-01
     1        185     1     2  0.185000E+01  0.185000E+01  0.100000E-01
     1        186     1     2  0.186000E+01  0.186000E+01  0.100000E-01
     1        187     1     2  0.187000E+01  0.187000E+01  0.100000E-01
     1        188     1     2  0.188000E+01  0.188000E+01  0.100000E-01
     1        189     1     2  0.189000E+01  0.189000E+01  0.100000E-01
     1        190     1     2  0.190000E+01  0.190000E+01  0.100000E-01
     1        191     1     2  0.191000E+01  0.191000E+01  0.100000E-01
     1        192     1     2  0.192000E+01  0.192000E+01  0.100000E-01
     1        193     1     2  0.193000E+01  0.193000E+01  0.100000E-01
     1        194     1     2  0.194000E+01  0.194000E+01  0.100000E-01
     1        195     1     2  0.195000E+01  0.195000E+01  0.100000E-01
     1        196     1     2  0.196000E+01  0.196000E+01  0.100000E-01
     1        197     1     2  0.197000E+01  0.197000E+01  0.100000E-01
     1        198     1     2  0.198000E+01  0.198000E+01  0.100000E-01
     1        199     1     2  0.199000E+01  0.199000E+01  0.100000E-01
     1        200     1     2  0.200000E+01  0.200000E+01  0.100000E-01
