*INCLUDE, INPUT=wing2312.msh
*MATERIAL, Name=EL
*ELASTIC
 4000000, 0.3
*DENSITY
 3000
*SOLID SECTION, Elset=Eall, Material=EL
*STEP, INC=1000000
*DYNAMIC, ALPHA=0.0, DIRECT
1.E-2, 5.0
*BOUNDARY
root_Nodes, 1, 3
*AMPLITUDE, Name=A1
0.,0.,1.,1.
*CLOAD, OP=NEW, AMPLITUDE=A1, TIME DELAY=0. 
 Nsurface, 2, 0.0
*NODE FILE
 U
*EL FILE
 S, E
*END STEP
