*INCLUDE, INPUT=naca2312_fem_fine.inp
*MATERIAL, Name=EL
*ELASTIC
 400000, 0.3
*DENSITY
 3000
*SOLID SECTION, Elset=Eall, Material=EL
*STEP, INC=1
*STATIC,
1., 1., 1e-5, 1.
*BOUNDARY
root_Nodes, 1, 3
*DLOAD, 
 lowerSurface_Faces, P1, 10.
*NODE FILE
 U
*EL FILE
 S, E
*END STEP
